
*** ChampSim Multicore Out-of-Order Simulator ***

Warmup Instructions: 10000000
Simulation Instructions: 100000000
Number of CPUs: 1
Off-chip DRAM Size: 4 GiB Channels: 1 Width: 64-bit Data Rate: 3200 MT/s

VirtualMemory physical capacity: 8588881920 num_ppages: 2096895
VirtualMemory page size: 4096 log2_page_size: 12

CPU 0 runs /datasets/cs240c-wi22-a00-public/data/Assignment2/zeusmp_100B.trace.xz
CPU 0 Bimodal branch predictor
Basic BTB sets: 1024 ways: 8 indirect buffer size: 4096 RAS size: 64
Initialize Hawkeye state
Heartbeat CPU 0 instructions: 10000000 cycles: 2533557 heartbeat IPC: 3.94702 cumulative IPC: 3.94702 (Simulation time: 0 hr 0 min 30 sec) 

Warmup complete CPU 0 instructions: 10000004 cycles: 2533558 (Simulation time: 0 hr 0 min 30 sec) 

Heartbeat CPU 0 instructions: 20000003 cycles: 8005127 heartbeat IPC: 1.82763 cumulative IPC: 1.82763 (Simulation time: 0 hr 1 min 27 sec) 
Heartbeat CPU 0 instructions: 30000000 cycles: 13920628 heartbeat IPC: 1.69047 cumulative IPC: 1.75638 (Simulation time: 0 hr 2 min 26 sec) 
Heartbeat CPU 0 instructions: 40000004 cycles: 19833017 heartbeat IPC: 1.69136 cumulative IPC: 1.73416 (Simulation time: 0 hr 3 min 25 sec) 
Heartbeat CPU 0 instructions: 50000001 cycles: 25726609 heartbeat IPC: 1.69676 cumulative IPC: 1.72465 (Simulation time: 0 hr 4 min 25 sec) 
Heartbeat CPU 0 instructions: 60000004 cycles: 31643816 heartbeat IPC: 1.68999 cumulative IPC: 1.71761 (Simulation time: 0 hr 5 min 25 sec) 
Heartbeat CPU 0 instructions: 70000001 cycles: 37528618 heartbeat IPC: 1.69929 cumulative IPC: 1.71453 (Simulation time: 0 hr 6 min 24 sec) 
Heartbeat CPU 0 instructions: 80000001 cycles: 43447421 heartbeat IPC: 1.68953 cumulative IPC: 1.71091 (Simulation time: 0 hr 7 min 24 sec) 
Heartbeat CPU 0 instructions: 90000000 cycles: 49364218 heartbeat IPC: 1.6901 cumulative IPC: 1.70828 (Simulation time: 0 hr 8 min 24 sec) 
Heartbeat CPU 0 instructions: 100000000 cycles: 55249930 heartbeat IPC: 1.69903 cumulative IPC: 1.70725 (Simulation time: 0 hr 9 min 23 sec) 
Heartbeat CPU 0 instructions: 110000003 cycles: 61170075 heartbeat IPC: 1.68915 cumulative IPC: 1.70542 (Simulation time: 0 hr 10 min 23 sec) 
Finished CPU 0 instructions: 100000004 cycles: 58636518 cumulative IPC: 1.70542 (Simulation time: 0 hr 10 min 23 sec) 

ChampSim completed all CPUs

Region of Interest Statistics

CPU 0 cumulative IPC: 1.70542 instructions: 100000004 cycles: 58636518
cpu0_DTLB TOTAL     ACCESS:   16444665  HIT:   12280226  MISS:    4164439
cpu0_DTLB LOAD      ACCESS:   11966054  HIT:    9308714  MISS:    2657340
cpu0_DTLB RFO       ACCESS:    4478611  HIT:    2971512  MISS:    1507099
cpu0_DTLB PREFETCH  ACCESS:          0  HIT:          0  MISS:          0
cpu0_DTLB WRITEBACK ACCESS:          0  HIT:          0  MISS:          0
cpu0_DTLB TRANSLATION ACCESS:          0  HIT:          0  MISS:          0
cpu0_DTLB PREFETCH  REQUESTED:          0  ISSUED:          0  USEFUL:          0  USELESS:          0
cpu0_DTLB AVERAGE MISS LATENCY: 10.4013 cycles
cpu0_ITLB TOTAL     ACCESS:    2227447  HIT:    2227446  MISS:          1
cpu0_ITLB LOAD      ACCESS:    2227447  HIT:    2227446  MISS:          1
cpu0_ITLB RFO       ACCESS:          0  HIT:          0  MISS:          0
cpu0_ITLB PREFETCH  ACCESS:          0  HIT:          0  MISS:          0
cpu0_ITLB WRITEBACK ACCESS:          0  HIT:          0  MISS:          0
cpu0_ITLB TRANSLATION ACCESS:          0  HIT:          0  MISS:          0
cpu0_ITLB PREFETCH  REQUESTED:          0  ISSUED:          0  USEFUL:          0  USELESS:          0
cpu0_ITLB AVERAGE MISS LATENCY: 249 cycles
cpu0_L1I TOTAL     ACCESS:    3117538  HIT:    3117487  MISS:         51
cpu0_L1I LOAD      ACCESS:    3117538  HIT:    3117487  MISS:         51
cpu0_L1I RFO       ACCESS:          0  HIT:          0  MISS:          0
cpu0_L1I PREFETCH  ACCESS:          0  HIT:          0  MISS:          0
cpu0_L1I WRITEBACK ACCESS:          0  HIT:          0  MISS:          0
cpu0_L1I TRANSLATION ACCESS:          0  HIT:          0  MISS:          0
cpu0_L1I PREFETCH  REQUESTED:          0  ISSUED:          0  USEFUL:          0  USELESS:          0
cpu0_L1I AVERAGE MISS LATENCY: 322.412 cycles
cpu0_STLB TOTAL     ACCESS:    4164440  HIT:    4156001  MISS:       8439
cpu0_STLB LOAD      ACCESS:    2657341  HIT:    2652178  MISS:       5163
cpu0_STLB RFO       ACCESS:    1507099  HIT:    1503823  MISS:       3276
cpu0_STLB PREFETCH  ACCESS:          0  HIT:          0  MISS:          0
cpu0_STLB WRITEBACK ACCESS:          0  HIT:          0  MISS:          0
cpu0_STLB TRANSLATION ACCESS:          0  HIT:          0  MISS:          0
cpu0_STLB PREFETCH  REQUESTED:          0  ISSUED:          0  USEFUL:          0  USELESS:          0
cpu0_STLB AVERAGE MISS LATENCY: 554.943 cycles
cpu0_L1D TOTAL     ACCESS:   19021115  HIT:   13986223  MISS:    5034892
cpu0_L1D LOAD      ACCESS:   12125862  HIT:    8890843  MISS:    3235019
cpu0_L1D RFO       ACCESS:    6886909  HIT:    5094732  MISS:    1792177
cpu0_L1D PREFETCH  ACCESS:          0  HIT:          0  MISS:          0
cpu0_L1D WRITEBACK ACCESS:          0  HIT:          0  MISS:          0
cpu0_L1D TRANSLATION ACCESS:       8344  HIT:        648  MISS:       7696
cpu0_L1D PREFETCH  REQUESTED:          0  ISSUED:          0  USEFUL:          0  USELESS:          0
cpu0_L1D AVERAGE MISS LATENCY: 86.3418 cycles
cpu0_L2C TOTAL     ACCESS:    6855610  HIT:    6267884  MISS:     587726
cpu0_L2C LOAD      ACCESS:    3234793  HIT:    2840626  MISS:     394167
cpu0_L2C RFO       ACCESS:    1790657  HIT:    1597395  MISS:     193262
cpu0_L2C PREFETCH  ACCESS:          0  HIT:          0  MISS:          0
cpu0_L2C WRITEBACK ACCESS:    1822464  HIT:    1822173  MISS:        291
cpu0_L2C TRANSLATION ACCESS:       7696  HIT:       7690  MISS:          6
cpu0_L2C PREFETCH  REQUESTED:          0  ISSUED:          0  USEFUL:          0  USELESS:          0
cpu0_L2C AVERAGE MISS LATENCY: 644.572 cycles
LLC TOTAL     ACCESS:     780777  HIT:     105828  MISS:     674949
LLC LOAD      ACCESS:     394167  HIT:      88748  MISS:     305419
LLC RFO       ACCESS:     193262  HIT:          0  MISS:     193262
LLC PREFETCH  ACCESS:          0  HIT:          0  MISS:          0
LLC WRITEBACK ACCESS:     193342  HIT:      17079  MISS:     176263
LLC TRANSLATION ACCESS:          6  HIT:          1  MISS:          5
LLC PREFETCH  REQUESTED:          0  ISSUED:          0  USEFUL:          0  USELESS:          0
LLC AVERAGE MISS LATENCY: 542.997 cycles
OPTgen accesses: 9772
OPTgen hits: 1479
OPTgen hit rate: 15.1351



DRAM Statistics
 CHANNEL 0
 RQ ROW_BUFFER_HIT:        138  ROW_BUFFER_MISS:     498548
 DBUS AVG_CONGESTED_CYCLE:    3.99925
 WQ ROW_BUFFER_HIT:        443  ROW_BUFFER_MISS:     193939  FULL:          0


CPU 0 Branch Prediction Accuracy: 99.0158% MPKI: 0.52371 Average ROB Occupancy at Mispredict: 235.797
Branch type MPKI
BRANCH_DIRECT_JUMP: 1e-05
BRANCH_INDIRECT: 0
BRANCH_CONDITIONAL: 0.5237
BRANCH_DIRECT_CALL: 0
BRANCH_INDIRECT_CALL: 0
BRANCH_RETURN: 0

