
*** ChampSim Multicore Out-of-Order Simulator ***

Warmup Instructions: 10000000
Simulation Instructions: 100000000
Number of CPUs: 1
Off-chip DRAM Size: 4 GiB Channels: 1 Width: 64-bit Data Rate: 3200 MT/s

VirtualMemory physical capacity: 8588881920 num_ppages: 2096895
VirtualMemory page size: 4096 log2_page_size: 12

CPU 0 runs /datasets/cs240c-wi22-a00-public/data/Assignment2/leslie3d_94B.trace.xz
CPU 0 Bimodal branch predictor
Basic BTB sets: 1024 ways: 8 indirect buffer size: 4096 RAS size: 64
Initialize Hawkeye state
Heartbeat CPU 0 instructions: 10000002 cycles: 4308730 heartbeat IPC: 2.32087 cumulative IPC: 2.32087 (Simulation time: 0 hr 1 min 17 sec) 

Warmup complete CPU 0 instructions: 10000002 cycles: 4308730 (Simulation time: 0 hr 1 min 17 sec) 

Heartbeat CPU 0 instructions: 20000001 cycles: 25234280 heartbeat IPC: 0.477885 cumulative IPC: 0.477885 (Simulation time: 0 hr 3 min 54 sec) 
Heartbeat CPU 0 instructions: 30000001 cycles: 76022686 heartbeat IPC: 0.196895 cumulative IPC: 0.278886 (Simulation time: 0 hr 9 min 18 sec) 
Heartbeat CPU 0 instructions: 40000001 cycles: 86809055 heartbeat IPC: 0.927096 cumulative IPC: 0.363635 (Simulation time: 0 hr 11 min 18 sec) 
Heartbeat CPU 0 instructions: 50000002 cycles: 97060416 heartbeat IPC: 0.97548 cumulative IPC: 0.431259 (Simulation time: 0 hr 13 min 14 sec) 
Heartbeat CPU 0 instructions: 60000003 cycles: 107212250 heartbeat IPC: 0.985044 cumulative IPC: 0.485892 (Simulation time: 0 hr 15 min 10 sec) 
Heartbeat CPU 0 instructions: 70000001 cycles: 117327690 heartbeat IPC: 0.988588 cumulative IPC: 0.530884 (Simulation time: 0 hr 17 min 5 sec) 
Heartbeat CPU 0 instructions: 80000001 cycles: 131396677 heartbeat IPC: 0.710783 cumulative IPC: 0.5508 (Simulation time: 0 hr 19 min 17 sec) 
Heartbeat CPU 0 instructions: 90000004 cycles: 165404292 heartbeat IPC: 0.294052 cumulative IPC: 0.4966 (Simulation time: 0 hr 23 min 10 sec) 
Heartbeat CPU 0 instructions: 100000001 cycles: 221448959 heartbeat IPC: 0.178429 cumulative IPC: 0.414479 (Simulation time: 0 hr 29 min 32 sec) 
Heartbeat CPU 0 instructions: 110000004 cycles: 237766041 heartbeat IPC: 0.612855 cumulative IPC: 0.428344 (Simulation time: 0 hr 31 min 34 sec) 
Finished CPU 0 instructions: 100000002 cycles: 233457311 cumulative IPC: 0.428344 (Simulation time: 0 hr 31 min 34 sec) 

ChampSim completed all CPUs

Region of Interest Statistics

CPU 0 cumulative IPC: 0.428344 instructions: 100000002 cycles: 233457311
cpu0_DTLB TOTAL     ACCESS:   26704494  HIT:   26591869  MISS:     112625
cpu0_DTLB LOAD      ACCESS:   21443523  HIT:   21347837  MISS:      95686
cpu0_DTLB RFO       ACCESS:    5260971  HIT:    5244032  MISS:      16939
cpu0_DTLB PREFETCH  ACCESS:          0  HIT:          0  MISS:          0
cpu0_DTLB WRITEBACK ACCESS:          0  HIT:          0  MISS:          0
cpu0_DTLB TRANSLATION ACCESS:          0  HIT:          0  MISS:          0
cpu0_DTLB PREFETCH  REQUESTED:          0  ISSUED:          0  USEFUL:          0  USELESS:          0
cpu0_DTLB AVERAGE MISS LATENCY: 105.165 cycles
cpu0_ITLB TOTAL     ACCESS:    3131213  HIT:    3131156  MISS:         57
cpu0_ITLB LOAD      ACCESS:    3131213  HIT:    3131156  MISS:         57
cpu0_ITLB RFO       ACCESS:          0  HIT:          0  MISS:          0
cpu0_ITLB PREFETCH  ACCESS:          0  HIT:          0  MISS:          0
cpu0_ITLB WRITEBACK ACCESS:          0  HIT:          0  MISS:          0
cpu0_ITLB TRANSLATION ACCESS:          0  HIT:          0  MISS:          0
cpu0_ITLB PREFETCH  REQUESTED:          0  ISSUED:          0  USEFUL:          0  USELESS:          0
cpu0_ITLB AVERAGE MISS LATENCY: 245.684 cycles
cpu0_L1I TOTAL     ACCESS:    1638988  HIT:    1637916  MISS:       1072
cpu0_L1I LOAD      ACCESS:    1638988  HIT:    1637916  MISS:       1072
cpu0_L1I RFO       ACCESS:          0  HIT:          0  MISS:          0
cpu0_L1I PREFETCH  ACCESS:          0  HIT:          0  MISS:          0
cpu0_L1I WRITEBACK ACCESS:          0  HIT:          0  MISS:          0
cpu0_L1I TRANSLATION ACCESS:          0  HIT:          0  MISS:          0
cpu0_L1I PREFETCH  REQUESTED:          0  ISSUED:          0  USEFUL:          0  USELESS:          0
cpu0_L1I AVERAGE MISS LATENCY: 324.911 cycles
cpu0_STLB TOTAL     ACCESS:     112682  HIT:      62986  MISS:      49696
cpu0_STLB LOAD      ACCESS:      95743  HIT:      56383  MISS:      39360
cpu0_STLB RFO       ACCESS:      16939  HIT:       6603  MISS:      10336
cpu0_STLB PREFETCH  ACCESS:          0  HIT:          0  MISS:          0
cpu0_STLB WRITEBACK ACCESS:          0  HIT:          0  MISS:          0
cpu0_STLB TRANSLATION ACCESS:          0  HIT:          0  MISS:          0
cpu0_STLB PREFETCH  REQUESTED:          0  ISSUED:          0  USEFUL:          0  USELESS:          0
cpu0_STLB AVERAGE MISS LATENCY: 218.13 cycles
cpu0_L1D TOTAL     ACCESS:   22206311  HIT:   18170131  MISS:    4036180
cpu0_L1D LOAD      ACCESS:   13823890  HIT:   10734850  MISS:    3089040
cpu0_L1D RFO       ACCESS:    8340050  HIT:    7397822  MISS:     942228
cpu0_L1D PREFETCH  ACCESS:          0  HIT:          0  MISS:          0
cpu0_L1D WRITEBACK ACCESS:          0  HIT:          0  MISS:          0
cpu0_L1D TRANSLATION ACCESS:      42371  HIT:      37459  MISS:       4912
cpu0_L1D PREFETCH  REQUESTED:          0  ISSUED:          0  USEFUL:          0  USELESS:          0
cpu0_L1D AVERAGE MISS LATENCY: 617.703 cycles
cpu0_L2C TOTAL     ACCESS:    5249239  HIT:    2252369  MISS:    2996870
cpu0_L2C LOAD      ACCESS:    3090108  HIT:     791814  MISS:    2298294
cpu0_L2C RFO       ACCESS:     942134  HIT:     246132  MISS:     696002
cpu0_L2C PREFETCH  ACCESS:          0  HIT:          0  MISS:          0
cpu0_L2C WRITEBACK ACCESS:    1212085  HIT:    1209792  MISS:       2293
cpu0_L2C TRANSLATION ACCESS:       4912  HIT:       4631  MISS:        281
cpu0_L2C PREFETCH  REQUESTED:          0  ISSUED:          0  USEFUL:          0  USELESS:          0
cpu0_L2C AVERAGE MISS LATENCY: 817.144 cycles
LLC TOTAL     ACCESS:    3927623  HIT:     664007  MISS:    3263616
LLC LOAD      ACCESS:    2298289  HIT:     390483  MISS:    1907806
LLC RFO       ACCESS:     695996  HIT:      35613  MISS:     660383
LLC PREFETCH  ACCESS:          0  HIT:          0  MISS:          0
LLC WRITEBACK ACCESS:     933057  HIT:     237819  MISS:     695238
LLC TRANSLATION ACCESS:        281  HIT:         92  MISS:        189
LLC PREFETCH  REQUESTED:          0  ISSUED:          0  USEFUL:          0  USELESS:          0
LLC AVERAGE MISS LATENCY: 731.054 cycles
OPTgen accesses: 50363
OPTgen hits: 11297
OPTgen hit rate: 22.4311



DRAM Statistics
 CHANNEL 0
 RQ ROW_BUFFER_HIT:     172524  ROW_BUFFER_MISS:    2395643
 DBUS AVG_CONGESTED_CYCLE:    3.97284
 WQ ROW_BUFFER_HIT:      48537  ROW_BUFFER_MISS:     819621  FULL:      12353


CPU 0 Branch Prediction Accuracy: 96.9231% MPKI: 1.73686 Average ROB Occupancy at Mispredict: 309.025
Branch type MPKI
BRANCH_DIRECT_JUMP: 0.00082
BRANCH_INDIRECT: 0.00014
BRANCH_CONDITIONAL: 1.73229
BRANCH_DIRECT_CALL: 0.00185
BRANCH_INDIRECT_CALL: 3e-05
BRANCH_RETURN: 0.00173

