
*** ChampSim Multicore Out-of-Order Simulator ***

Warmup Instructions: 10000000
Simulation Instructions: 100000000
Number of CPUs: 1
Off-chip DRAM Size: 4 GiB Channels: 1 Width: 64-bit Data Rate: 3200 MT/s

VirtualMemory physical capacity: 8588881920 num_ppages: 2096895
VirtualMemory page size: 4096 log2_page_size: 12

CPU 0 runs /datasets/cs240c-wi22-a00-public/data/Assignment2/calculix_3812B.trace.xz
CPU 0 Bimodal branch predictor
Basic BTB sets: 1024 ways: 8 indirect buffer size: 4096 RAS size: 64
Initialize Hawkeye state
Heartbeat CPU 0 instructions: 10000000 cycles: 2819851 heartbeat IPC: 3.54629 cumulative IPC: 3.54629 (Simulation time: 0 hr 0 min 31 sec) 

Warmup complete CPU 0 instructions: 10000004 cycles: 2819852 (Simulation time: 0 hr 0 min 31 sec) 

Heartbeat CPU 0 instructions: 20000004 cycles: 6556313 heartbeat IPC: 2.67633 cumulative IPC: 2.67633 (Simulation time: 0 hr 1 min 0 sec) 
Heartbeat CPU 0 instructions: 30000001 cycles: 10365301 heartbeat IPC: 2.62537 cumulative IPC: 2.6506 (Simulation time: 0 hr 1 min 29 sec) 
Heartbeat CPU 0 instructions: 40000000 cycles: 14179750 heartbeat IPC: 2.62161 cumulative IPC: 2.64087 (Simulation time: 0 hr 2 min 19 sec) 
Heartbeat CPU 0 instructions: 50000001 cycles: 18419405 heartbeat IPC: 2.35868 cumulative IPC: 2.56418 (Simulation time: 0 hr 3 min 0 sec) 
Heartbeat CPU 0 instructions: 60000000 cycles: 22282093 heartbeat IPC: 2.58887 cumulative IPC: 2.56908 (Simulation time: 0 hr 3 min 31 sec) 
Heartbeat CPU 0 instructions: 70000000 cycles: 26034488 heartbeat IPC: 2.66496 cumulative IPC: 2.58458 (Simulation time: 0 hr 4 min 1 sec) 
Heartbeat CPU 0 instructions: 80000001 cycles: 29632555 heartbeat IPC: 2.77927 cumulative IPC: 2.6107 (Simulation time: 0 hr 4 min 41 sec) 
Heartbeat CPU 0 instructions: 90000004 cycles: 33381647 heartbeat IPC: 2.66731 cumulative IPC: 2.61765 (Simulation time: 0 hr 5 min 19 sec) 
Heartbeat CPU 0 instructions: 100000001 cycles: 37178903 heartbeat IPC: 2.63348 cumulative IPC: 2.6194 (Simulation time: 0 hr 5 min 49 sec) 
Heartbeat CPU 0 instructions: 110000002 cycles: 40879391 heartbeat IPC: 2.70235 cumulative IPC: 2.62746 (Simulation time: 0 hr 6 min 19 sec) 
Finished CPU 0 instructions: 100000003 cycles: 38059540 cumulative IPC: 2.62746 (Simulation time: 0 hr 6 min 19 sec) 

ChampSim completed all CPUs

Region of Interest Statistics

CPU 0 cumulative IPC: 2.62746 instructions: 100000003 cycles: 38059540
cpu0_DTLB TOTAL     ACCESS:   14462559  HIT:   14435288  MISS:      27271
cpu0_DTLB LOAD      ACCESS:   12803330  HIT:   12777153  MISS:      26177
cpu0_DTLB RFO       ACCESS:    1659229  HIT:    1658135  MISS:       1094
cpu0_DTLB PREFETCH  ACCESS:          0  HIT:          0  MISS:          0
cpu0_DTLB WRITEBACK ACCESS:          0  HIT:          0  MISS:          0
cpu0_DTLB TRANSLATION ACCESS:          0  HIT:          0  MISS:          0
cpu0_DTLB PREFETCH  REQUESTED:          0  ISSUED:          0  USEFUL:          0  USELESS:          0
cpu0_DTLB AVERAGE MISS LATENCY: 14.9395 cycles
cpu0_ITLB TOTAL     ACCESS:    5767790  HIT:    5767762  MISS:         28
cpu0_ITLB LOAD      ACCESS:    5767790  HIT:    5767762  MISS:         28
cpu0_ITLB RFO       ACCESS:          0  HIT:          0  MISS:          0
cpu0_ITLB PREFETCH  ACCESS:          0  HIT:          0  MISS:          0
cpu0_ITLB WRITEBACK ACCESS:          0  HIT:          0  MISS:          0
cpu0_ITLB TRANSLATION ACCESS:          0  HIT:          0  MISS:          0
cpu0_ITLB PREFETCH  REQUESTED:          0  ISSUED:          0  USEFUL:          0  USELESS:          0
cpu0_ITLB AVERAGE MISS LATENCY: 9 cycles
cpu0_L1I TOTAL     ACCESS:     869568  HIT:     868816  MISS:        752
cpu0_L1I LOAD      ACCESS:     869568  HIT:     868816  MISS:        752
cpu0_L1I RFO       ACCESS:          0  HIT:          0  MISS:          0
cpu0_L1I PREFETCH  ACCESS:          0  HIT:          0  MISS:          0
cpu0_L1I WRITEBACK ACCESS:          0  HIT:          0  MISS:          0
cpu0_L1I TRANSLATION ACCESS:          0  HIT:          0  MISS:          0
cpu0_L1I PREFETCH  REQUESTED:          0  ISSUED:          0  USEFUL:          0  USELESS:          0
cpu0_L1I AVERAGE MISS LATENCY: 59.75 cycles
cpu0_STLB TOTAL     ACCESS:      27299  HIT:      26525  MISS:        774
cpu0_STLB LOAD      ACCESS:      26205  HIT:      25865  MISS:        340
cpu0_STLB RFO       ACCESS:       1094  HIT:        660  MISS:        434
cpu0_STLB PREFETCH  ACCESS:          0  HIT:          0  MISS:          0
cpu0_STLB WRITEBACK ACCESS:          0  HIT:          0  MISS:          0
cpu0_STLB TRANSLATION ACCESS:          0  HIT:          0  MISS:          0
cpu0_STLB PREFETCH  REQUESTED:          0  ISSUED:          0  USEFUL:          0  USELESS:          0
cpu0_STLB AVERAGE MISS LATENCY: 209.2 cycles
cpu0_L1D TOTAL     ACCESS:   16707001  HIT:   15379708  MISS:    1327293
cpu0_L1D LOAD      ACCESS:   11988473  HIT:   10713382  MISS:    1275091
cpu0_L1D RFO       ACCESS:    4717757  HIT:    4665602  MISS:      52155
cpu0_L1D PREFETCH  ACCESS:          0  HIT:          0  MISS:          0
cpu0_L1D WRITEBACK ACCESS:          0  HIT:          0  MISS:          0
cpu0_L1D TRANSLATION ACCESS:        771  HIT:        724  MISS:         47
cpu0_L1D PREFETCH  REQUESTED:          0  ISSUED:          0  USEFUL:          0  USELESS:          0
cpu0_L1D AVERAGE MISS LATENCY: 31.0424 cycles
cpu0_L2C TOTAL     ACCESS:    1837949  HIT:    1545997  MISS:     291952
cpu0_L2C LOAD      ACCESS:    1275832  HIT:    1023140  MISS:     252692
cpu0_L2C RFO       ACCESS:      52155  HIT:      13809  MISS:      38346
cpu0_L2C PREFETCH  ACCESS:          0  HIT:          0  MISS:          0
cpu0_L2C WRITEBACK ACCESS:     509915  HIT:     509017  MISS:        898
cpu0_L2C TRANSLATION ACCESS:         47  HIT:         31  MISS:         16
cpu0_L2C PREFETCH  REQUESTED:          0  ISSUED:          0  USEFUL:          0  USELESS:          0
cpu0_L2C AVERAGE MISS LATENCY: 90.5406 cycles
LLC TOTAL     ACCESS:     430995  HIT:     351957  MISS:      79038
LLC LOAD      ACCESS:     252692  HIT:     203284  MISS:      49408
LLC RFO       ACCESS:      38345  HIT:      10637  MISS:      27708
LLC PREFETCH  ACCESS:          0  HIT:          0  MISS:          0
LLC WRITEBACK ACCESS:     139942  HIT:     138024  MISS:       1918
LLC TRANSLATION ACCESS:         16  HIT:         12  MISS:          4
LLC PREFETCH  REQUESTED:          0  ISSUED:          0  USEFUL:          0  USELESS:          0
LLC AVERAGE MISS LATENCY: 257.107 cycles
OPTgen accesses: 5286
OPTgen hits: 3797
OPTgen hit rate: 71.8313



DRAM Statistics
 CHANNEL 0
 RQ ROW_BUFFER_HIT:      39775  ROW_BUFFER_MISS:      37337
 DBUS AVG_CONGESTED_CYCLE:    3.95641
 WQ ROW_BUFFER_HIT:       4120  ROW_BUFFER_MISS:      20665  FULL:          0


CPU 0 Branch Prediction Accuracy: 96.6151% MPKI: 1.9742 Average ROB Occupancy at Mispredict: 164.064
Branch type MPKI
BRANCH_DIRECT_JUMP: 0.00017
BRANCH_INDIRECT: 0.00062
BRANCH_CONDITIONAL: 1.97308
BRANCH_DIRECT_CALL: 0.00017
BRANCH_INDIRECT_CALL: 0
BRANCH_RETURN: 0.00016

