
*** ChampSim Multicore Out-of-Order Simulator ***

Warmup Instructions: 10000000
Simulation Instructions: 100000000
Number of CPUs: 1
Off-chip DRAM Size: 4 GiB Channels: 1 Width: 64-bit Data Rate: 3200 MT/s

VirtualMemory physical capacity: 8588881920 num_ppages: 2096895
VirtualMemory page size: 4096 log2_page_size: 12

CPU 0 runs /datasets/cs240c-wi22-a00-public/data/Assignment2/mcf_158B.trace.xz
CPU 0 Bimodal branch predictor
Basic BTB sets: 1024 ways: 8 indirect buffer size: 4096 RAS size: 64
Initialize Hawkeye state
Heartbeat CPU 0 instructions: 10000002 cycles: 3864089 heartbeat IPC: 2.58793 cumulative IPC: 2.58793 (Simulation time: 0 hr 0 min 54 sec) 

Warmup complete CPU 0 instructions: 10000002 cycles: 3864089 (Simulation time: 0 hr 0 min 54 sec) 

Heartbeat CPU 0 instructions: 20000000 cycles: 138381872 heartbeat IPC: 0.0743396 cumulative IPC: 0.0743396 (Simulation time: 0 hr 4 min 27 sec) 
Heartbeat CPU 0 instructions: 30000000 cycles: 269432512 heartbeat IPC: 0.0763064 cumulative IPC: 0.0753101 (Simulation time: 0 hr 7 min 33 sec) 
Heartbeat CPU 0 instructions: 40000001 cycles: 396387505 heartbeat IPC: 0.0787681 cumulative IPC: 0.0764286 (Simulation time: 0 hr 10 min 31 sec) 
Heartbeat CPU 0 instructions: 50000000 cycles: 515701694 heartbeat IPC: 0.0838123 cumulative IPC: 0.0781498 (Simulation time: 0 hr 13 min 19 sec) 
Heartbeat CPU 0 instructions: 60000000 cycles: 629739971 heartbeat IPC: 0.0876899 cumulative IPC: 0.079888 (Simulation time: 0 hr 16 min 2 sec) 
Heartbeat CPU 0 instructions: 70000002 cycles: 742135671 heartbeat IPC: 0.0889714 cumulative IPC: 0.0812709 (Simulation time: 0 hr 18 min 42 sec) 
Heartbeat CPU 0 instructions: 80000000 cycles: 856822989 heartbeat IPC: 0.0871936 cumulative IPC: 0.0820673 (Simulation time: 0 hr 21 min 25 sec) 
Heartbeat CPU 0 instructions: 90000003 cycles: 975750893 heartbeat IPC: 0.0840846 cumulative IPC: 0.0823141 (Simulation time: 0 hr 24 min 14 sec) 
Heartbeat CPU 0 instructions: 100000003 cycles: 1095311138 heartbeat IPC: 0.0836398 cumulative IPC: 0.0824593 (Simulation time: 0 hr 27 min 7 sec) 
Heartbeat CPU 0 instructions: 110000001 cycles: 1215680584 heartbeat IPC: 0.0830775 cumulative IPC: 0.0825207 (Simulation time: 0 hr 30 min 10 sec) 
Finished CPU 0 instructions: 100000002 cycles: 1211816496 cumulative IPC: 0.0825207 (Simulation time: 0 hr 30 min 10 sec) 

ChampSim completed all CPUs

Region of Interest Statistics

CPU 0 cumulative IPC: 0.0825207 instructions: 100000002 cycles: 1211816496
cpu0_DTLB TOTAL     ACCESS:   23554358  HIT:   12732441  MISS:   10821917
cpu0_DTLB LOAD      ACCESS:   20433268  HIT:    9978569  MISS:   10454699
cpu0_DTLB RFO       ACCESS:    3121090  HIT:    2753872  MISS:     367218
cpu0_DTLB PREFETCH  ACCESS:          0  HIT:          0  MISS:          0
cpu0_DTLB WRITEBACK ACCESS:          0  HIT:          0  MISS:          0
cpu0_DTLB TRANSLATION ACCESS:          0  HIT:          0  MISS:          0
cpu0_DTLB PREFETCH  REQUESTED:          0  ISSUED:          0  USEFUL:          0  USELESS:          0
cpu0_DTLB AVERAGE MISS LATENCY: 11.9479 cycles
cpu0_ITLB TOTAL     ACCESS:   12955166  HIT:   12955166  MISS:          0
cpu0_ITLB LOAD      ACCESS:   12955166  HIT:   12955166  MISS:          0
cpu0_ITLB RFO       ACCESS:          0  HIT:          0  MISS:          0
cpu0_ITLB PREFETCH  ACCESS:          0  HIT:          0  MISS:          0
cpu0_ITLB WRITEBACK ACCESS:          0  HIT:          0  MISS:          0
cpu0_ITLB TRANSLATION ACCESS:          0  HIT:          0  MISS:          0
cpu0_ITLB PREFETCH  REQUESTED:          0  ISSUED:          0  USEFUL:          0  USELESS:          0
cpu0_ITLB AVERAGE MISS LATENCY: -nan cycles
cpu0_L1I TOTAL     ACCESS:         19  HIT:         14  MISS:          5
cpu0_L1I LOAD      ACCESS:         19  HIT:         14  MISS:          5
cpu0_L1I RFO       ACCESS:          0  HIT:          0  MISS:          0
cpu0_L1I PREFETCH  ACCESS:          0  HIT:          0  MISS:          0
cpu0_L1I WRITEBACK ACCESS:          0  HIT:          0  MISS:          0
cpu0_L1I TRANSLATION ACCESS:          0  HIT:          0  MISS:          0
cpu0_L1I PREFETCH  REQUESTED:          0  ISSUED:          0  USEFUL:          0  USELESS:          0
cpu0_L1I AVERAGE MISS LATENCY: 194.2 cycles
cpu0_STLB TOTAL     ACCESS:   10821917  HIT:    9710655  MISS:    1111262
cpu0_STLB LOAD      ACCESS:   10454699  HIT:    9350203  MISS:    1104496
cpu0_STLB RFO       ACCESS:     367218  HIT:     360452  MISS:       6766
cpu0_STLB PREFETCH  ACCESS:          0  HIT:          0  MISS:          0
cpu0_STLB WRITEBACK ACCESS:          0  HIT:          0  MISS:          0
cpu0_STLB TRANSLATION ACCESS:          0  HIT:          0  MISS:          0
cpu0_STLB PREFETCH  REQUESTED:          0  ISSUED:          0  USEFUL:          0  USELESS:          0
cpu0_STLB AVERAGE MISS LATENCY: 28.6694 cycles
cpu0_L1D TOTAL     ACCESS:   27615045  HIT:   14071145  MISS:   13543900
cpu0_L1D LOAD      ACCESS:   22268304  HIT:    9098431  MISS:   13169873
cpu0_L1D RFO       ACCESS:    4239367  HIT:    4034350  MISS:     205017
cpu0_L1D PREFETCH  ACCESS:          0  HIT:          0  MISS:          0
cpu0_L1D WRITEBACK ACCESS:          0  HIT:          0  MISS:          0
cpu0_L1D TRANSLATION ACCESS:    1107374  HIT:     938364  MISS:     169010
cpu0_L1D PREFETCH  REQUESTED:          0  ISSUED:          0  USEFUL:          0  USELESS:          0
cpu0_L1D AVERAGE MISS LATENCY: 160.903 cycles
cpu0_L2C TOTAL     ACCESS:   15651434  HIT:    6138248  MISS:    9513186
cpu0_L2C LOAD      ACCESS:   13169512  HIT:    3841550  MISS:    9327962
cpu0_L2C RFO       ACCESS:     205011  HIT:      71750  MISS:     133261
cpu0_L2C PREFETCH  ACCESS:          0  HIT:          0  MISS:          0
cpu0_L2C WRITEBACK ACCESS:    2107901  HIT:    2107549  MISS:        352
cpu0_L2C TRANSLATION ACCESS:     169010  HIT:     117399  MISS:      51611
cpu0_L2C PREFETCH  REQUESTED:          0  ISSUED:          0  USEFUL:          0  USELESS:          0
cpu0_L2C AVERAGE MISS LATENCY: 213.344 cycles
LLC TOTAL     ACCESS:   11017990  HIT:    4423881  MISS:    6594109
LLC LOAD      ACCESS:    9327960  HIT:    3502035  MISS:    5825925
LLC RFO       ACCESS:     133261  HIT:      69224  MISS:      64037
LLC PREFETCH  ACCESS:          0  HIT:          0  MISS:          0
LLC WRITEBACK ACCESS:    1505158  HIT:     844565  MISS:     660593
LLC TRANSLATION ACCESS:      51611  HIT:       8057  MISS:      43554
LLC PREFETCH  REQUESTED:          0  ISSUED:          0  USEFUL:          0  USELESS:          0
LLC AVERAGE MISS LATENCY: 277.491 cycles
OPTgen accesses: 172504
OPTgen hits: 73799
OPTgen hit rate: 42.781



DRAM Statistics
 CHANNEL 0
 RQ ROW_BUFFER_HIT:      19107  ROW_BUFFER_MISS:    5913662
 DBUS AVG_CONGESTED_CYCLE:    3.96484
 WQ ROW_BUFFER_HIT:      42441  ROW_BUFFER_MISS:     956424  FULL:          0


CPU 0 Branch Prediction Accuracy: 85.5988% MPKI: 40.2398 Average ROB Occupancy at Mispredict: 17.1962
Branch type MPKI
BRANCH_DIRECT_JUMP: 4e-05
BRANCH_INDIRECT: 0
BRANCH_CONDITIONAL: 40.2397
BRANCH_DIRECT_CALL: 0
BRANCH_INDIRECT_CALL: 0
BRANCH_RETURN: 0

