
*** ChampSim Multicore Out-of-Order Simulator ***

Warmup Instructions: 10000000
Simulation Instructions: 100000000
Number of CPUs: 1
Off-chip DRAM Size: 4 GiB Channels: 1 Width: 64-bit Data Rate: 3200 MT/s

VirtualMemory physical capacity: 8588881920 num_ppages: 2096895
VirtualMemory page size: 4096 log2_page_size: 12

CPU 0 runs /datasets/cs240c-wi22-a00-public/data/Assignment2/gcc_13B.trace.xz
CPU 0 Bimodal branch predictor
Basic BTB sets: 1024 ways: 8 indirect buffer size: 4096 RAS size: 64
Initialize Hawkeye state
Heartbeat CPU 0 instructions: 10000003 cycles: 2971498 heartbeat IPC: 3.36531 cumulative IPC: 3.36531 (Simulation time: 0 hr 0 min 45 sec) 

Warmup complete CPU 0 instructions: 10000003 cycles: 2971498 (Simulation time: 0 hr 0 min 45 sec) 

Heartbeat CPU 0 instructions: 20000003 cycles: 50965387 heartbeat IPC: 0.20836 cumulative IPC: 0.20836 (Simulation time: 0 hr 3 min 0 sec) 
Heartbeat CPU 0 instructions: 30000002 cycles: 103022779 heartbeat IPC: 0.192096 cumulative IPC: 0.199897 (Simulation time: 0 hr 5 min 22 sec) 
Heartbeat CPU 0 instructions: 40000004 cycles: 138994589 heartbeat IPC: 0.277996 cumulative IPC: 0.220551 (Simulation time: 0 hr 7 min 35 sec) 
Heartbeat CPU 0 instructions: 50000002 cycles: 156476029 heartbeat IPC: 0.572035 cumulative IPC: 0.260579 (Simulation time: 0 hr 8 min 26 sec) 
Heartbeat CPU 0 instructions: 60000003 cycles: 174489453 heartbeat IPC: 0.555142 cumulative IPC: 0.291515 (Simulation time: 0 hr 9 min 17 sec) 
Heartbeat CPU 0 instructions: 70000000 cycles: 193044133 heartbeat IPC: 0.538947 cumulative IPC: 0.315669 (Simulation time: 0 hr 10 min 9 sec) 
Heartbeat CPU 0 instructions: 80000002 cycles: 211041341 heartbeat IPC: 0.555642 cumulative IPC: 0.336425 (Simulation time: 0 hr 10 min 57 sec) 
Heartbeat CPU 0 instructions: 90000000 cycles: 229137802 heartbeat IPC: 0.552594 cumulative IPC: 0.353722 (Simulation time: 0 hr 11 min 48 sec) 
Heartbeat CPU 0 instructions: 100000000 cycles: 246703975 heartbeat IPC: 0.569276 cumulative IPC: 0.369257 (Simulation time: 0 hr 12 min 40 sec) 
Heartbeat CPU 0 instructions: 110000002 cycles: 271343823 heartbeat IPC: 0.405847 cumulative IPC: 0.372617 (Simulation time: 0 hr 13 min 41 sec) 
Finished CPU 0 instructions: 100000004 cycles: 268372326 cumulative IPC: 0.372617 (Simulation time: 0 hr 13 min 41 sec) 

ChampSim completed all CPUs

Region of Interest Statistics

CPU 0 cumulative IPC: 0.372617 instructions: 100000004 cycles: 268372326
cpu0_DTLB TOTAL     ACCESS:   19471171  HIT:   19368982  MISS:     102189
cpu0_DTLB LOAD      ACCESS:   14039620  HIT:   13952288  MISS:      87332
cpu0_DTLB RFO       ACCESS:    5431551  HIT:    5416694  MISS:      14857
cpu0_DTLB PREFETCH  ACCESS:          0  HIT:          0  MISS:          0
cpu0_DTLB WRITEBACK ACCESS:          0  HIT:          0  MISS:          0
cpu0_DTLB TRANSLATION ACCESS:          0  HIT:          0  MISS:          0
cpu0_DTLB PREFETCH  REQUESTED:          0  ISSUED:          0  USEFUL:          0  USELESS:          0
cpu0_DTLB AVERAGE MISS LATENCY: 28.1913 cycles
cpu0_ITLB TOTAL     ACCESS:   10353044  HIT:   10352983  MISS:         61
cpu0_ITLB LOAD      ACCESS:   10353044  HIT:   10352983  MISS:         61
cpu0_ITLB RFO       ACCESS:          0  HIT:          0  MISS:          0
cpu0_ITLB PREFETCH  ACCESS:          0  HIT:          0  MISS:          0
cpu0_ITLB WRITEBACK ACCESS:          0  HIT:          0  MISS:          0
cpu0_ITLB TRANSLATION ACCESS:          0  HIT:          0  MISS:          0
cpu0_ITLB PREFETCH  REQUESTED:          0  ISSUED:          0  USEFUL:          0  USELESS:          0
cpu0_ITLB AVERAGE MISS LATENCY: 143.836 cycles
cpu0_L1I TOTAL     ACCESS:    6565305  HIT:    6564933  MISS:        372
cpu0_L1I LOAD      ACCESS:    6565305  HIT:    6564933  MISS:        372
cpu0_L1I RFO       ACCESS:          0  HIT:          0  MISS:          0
cpu0_L1I PREFETCH  ACCESS:          0  HIT:          0  MISS:          0
cpu0_L1I WRITEBACK ACCESS:          0  HIT:          0  MISS:          0
cpu0_L1I TRANSLATION ACCESS:          0  HIT:          0  MISS:          0
cpu0_L1I PREFETCH  REQUESTED:          0  ISSUED:          0  USEFUL:          0  USELESS:          0
cpu0_L1I AVERAGE MISS LATENCY: 171.772 cycles
cpu0_STLB TOTAL     ACCESS:     102250  HIT:      33350  MISS:      68900
cpu0_STLB LOAD      ACCESS:      87393  HIT:      30352  MISS:      57041
cpu0_STLB RFO       ACCESS:      14857  HIT:       2998  MISS:      11859
cpu0_STLB PREFETCH  ACCESS:          0  HIT:          0  MISS:          0
cpu0_STLB WRITEBACK ACCESS:          0  HIT:          0  MISS:          0
cpu0_STLB TRANSLATION ACCESS:          0  HIT:          0  MISS:          0
cpu0_STLB PREFETCH  REQUESTED:          0  ISSUED:          0  USEFUL:          0  USELESS:          0
cpu0_STLB AVERAGE MISS LATENCY: 28.5769 cycles
cpu0_L1D TOTAL     ACCESS:   26272005  HIT:   24728245  MISS:    1543760
cpu0_L1D LOAD      ACCESS:   12781712  HIT:   11515422  MISS:    1266290
cpu0_L1D RFO       ACCESS:   13421607  HIT:   13145209  MISS:     276398
cpu0_L1D PREFETCH  ACCESS:          0  HIT:          0  MISS:          0
cpu0_L1D WRITEBACK ACCESS:          0  HIT:          0  MISS:          0
cpu0_L1D TRANSLATION ACCESS:      68686  HIT:      67614  MISS:       1072
cpu0_L1D PREFETCH  REQUESTED:          0  ISSUED:          0  USEFUL:          0  USELESS:          0
cpu0_L1D AVERAGE MISS LATENCY: 261.595 cycles
cpu0_L2C TOTAL     ACCESS:    1955979  HIT:     460922  MISS:    1495057
cpu0_L2C LOAD      ACCESS:    1266662  HIT:      46445  MISS:    1220217
cpu0_L2C RFO       ACCESS:     276398  HIT:       1818  MISS:     274580
cpu0_L2C PREFETCH  ACCESS:          0  HIT:          0  MISS:          0
cpu0_L2C WRITEBACK ACCESS:     411847  HIT:     411796  MISS:         51
cpu0_L2C TRANSLATION ACCESS:       1072  HIT:        863  MISS:        209
cpu0_L2C PREFETCH  REQUESTED:          0  ISSUED:          0  USEFUL:          0  USELESS:          0
cpu0_L2C AVERAGE MISS LATENCY: 258.768 cycles
LLC TOTAL     ACCESS:    1904564  HIT:     239671  MISS:    1664893
LLC LOAD      ACCESS:    1220217  HIT:     148273  MISS:    1071944
LLC RFO       ACCESS:     274580  HIT:      23312  MISS:     251268
LLC PREFETCH  ACCESS:          0  HIT:          0  MISS:          0
LLC WRITEBACK ACCESS:     409558  HIT:      67966  MISS:     341592
LLC TRANSLATION ACCESS:        209  HIT:        120  MISS:         89
LLC PREFETCH  REQUESTED:          0  ISSUED:          0  USEFUL:          0  USELESS:          0
LLC AVERAGE MISS LATENCY: 213.513 cycles
OPTgen accesses: 30444
OPTgen hits: 5689
OPTgen hit rate: 18.6868



DRAM Statistics
 CHANNEL 0
 RQ ROW_BUFFER_HIT:     212223  ROW_BUFFER_MISS:    1111027
 DBUS AVG_CONGESTED_CYCLE:    3.93728
 WQ ROW_BUFFER_HIT:      47073  ROW_BUFFER_MISS:     354157  FULL:      35048


CPU 0 Branch Prediction Accuracy: 87.437% MPKI: 28.6507 Average ROB Occupancy at Mispredict: 19.7905
Branch type MPKI
BRANCH_DIRECT_JUMP: 0.0008
BRANCH_INDIRECT: 0.00403
BRANCH_CONDITIONAL: 28.6428
BRANCH_DIRECT_CALL: 0.00114
BRANCH_INDIRECT_CALL: 0.0008
BRANCH_RETURN: 0.00114

