
*** ChampSim Multicore Out-of-Order Simulator ***

Warmup Instructions: 10000000
Simulation Instructions: 100000000
Number of CPUs: 1
Off-chip DRAM Size: 4 GiB Channels: 1 Width: 64-bit Data Rate: 3200 MT/s

VirtualMemory physical capacity: 8588881920 num_ppages: 2096895
VirtualMemory page size: 4096 log2_page_size: 12

CPU 0 runs /datasets/cs240c-wi22-a00-public/data/Assignment2/GemsFDTD_716B.trace.xz
CPU 0 Bimodal branch predictor
Basic BTB sets: 1024 ways: 8 indirect buffer size: 4096 RAS size: 64
Initialize Hawkeye state
Heartbeat CPU 0 instructions: 10000004 cycles: 2536408 heartbeat IPC: 3.94258 cumulative IPC: 3.94258 (Simulation time: 0 hr 0 min 34 sec) 

Warmup complete CPU 0 instructions: 10000004 cycles: 2536408 (Simulation time: 0 hr 0 min 34 sec) 

Heartbeat CPU 0 instructions: 20000003 cycles: 24422393 heartbeat IPC: 0.456913 cumulative IPC: 0.456913 (Simulation time: 0 hr 3 min 12 sec) 
Heartbeat CPU 0 instructions: 30000002 cycles: 38046543 heartbeat IPC: 0.733991 cumulative IPC: 0.563219 (Simulation time: 0 hr 5 min 9 sec) 
Heartbeat CPU 0 instructions: 40000000 cycles: 49436517 heartbeat IPC: 0.877965 cumulative IPC: 0.639657 (Simulation time: 0 hr 6 min 56 sec) 
Heartbeat CPU 0 instructions: 50000002 cycles: 67423119 heartbeat IPC: 0.555969 cumulative IPC: 0.616459 (Simulation time: 0 hr 9 min 16 sec) 
Heartbeat CPU 0 instructions: 60000002 cycles: 83281416 heartbeat IPC: 0.630585 cumulative IPC: 0.619233 (Simulation time: 0 hr 11 min 25 sec) 
Heartbeat CPU 0 instructions: 70000001 cycles: 95574719 heartbeat IPC: 0.813451 cumulative IPC: 0.644896 (Simulation time: 0 hr 13 min 16 sec) 
Heartbeat CPU 0 instructions: 80000003 cycles: 110402180 heartbeat IPC: 0.674424 cumulative IPC: 0.648955 (Simulation time: 0 hr 15 min 20 sec) 
Heartbeat CPU 0 instructions: 90000001 cycles: 128836237 heartbeat IPC: 0.542474 cumulative IPC: 0.633413 (Simulation time: 0 hr 17 min 40 sec) 
Heartbeat CPU 0 instructions: 100000001 cycles: 141861982 heartbeat IPC: 0.76771 cumulative IPC: 0.645969 (Simulation time: 0 hr 19 min 34 sec) 
Heartbeat CPU 0 instructions: 110000004 cycles: 153520600 heartbeat IPC: 0.857735 cumulative IPC: 0.662321 (Simulation time: 0 hr 21 min 20 sec) 
Finished CPU 0 instructions: 100000000 cycles: 150984192 cumulative IPC: 0.662321 (Simulation time: 0 hr 21 min 20 sec) 

ChampSim completed all CPUs

Region of Interest Statistics

CPU 0 cumulative IPC: 0.662321 instructions: 100000000 cycles: 150984192
cpu0_DTLB TOTAL     ACCESS:   29900403  HIT:   26870605  MISS:    3029798
cpu0_DTLB LOAD      ACCESS:   20923626  HIT:   17894736  MISS:    3028890
cpu0_DTLB RFO       ACCESS:    8976777  HIT:    8975869  MISS:        908
cpu0_DTLB PREFETCH  ACCESS:          0  HIT:          0  MISS:          0
cpu0_DTLB WRITEBACK ACCESS:          0  HIT:          0  MISS:          0
cpu0_DTLB TRANSLATION ACCESS:          0  HIT:          0  MISS:          0
cpu0_DTLB PREFETCH  REQUESTED:          0  ISSUED:          0  USEFUL:          0  USELESS:          0
cpu0_DTLB AVERAGE MISS LATENCY: 13.8579 cycles
cpu0_ITLB TOTAL     ACCESS:    1847846  HIT:    1847844  MISS:          2
cpu0_ITLB LOAD      ACCESS:    1847846  HIT:    1847844  MISS:          2
cpu0_ITLB RFO       ACCESS:          0  HIT:          0  MISS:          0
cpu0_ITLB PREFETCH  ACCESS:          0  HIT:          0  MISS:          0
cpu0_ITLB WRITEBACK ACCESS:          0  HIT:          0  MISS:          0
cpu0_ITLB TRANSLATION ACCESS:          0  HIT:          0  MISS:          0
cpu0_ITLB PREFETCH  REQUESTED:          0  ISSUED:          0  USEFUL:          0  USELESS:          0
cpu0_ITLB AVERAGE MISS LATENCY: 470 cycles
cpu0_L1I TOTAL     ACCESS:    7858177  HIT:    7858055  MISS:        122
cpu0_L1I LOAD      ACCESS:    7858177  HIT:    7858055  MISS:        122
cpu0_L1I RFO       ACCESS:          0  HIT:          0  MISS:          0
cpu0_L1I PREFETCH  ACCESS:          0  HIT:          0  MISS:          0
cpu0_L1I WRITEBACK ACCESS:          0  HIT:          0  MISS:          0
cpu0_L1I TRANSLATION ACCESS:          0  HIT:          0  MISS:          0
cpu0_L1I PREFETCH  REQUESTED:          0  ISSUED:          0  USEFUL:          0  USELESS:          0
cpu0_L1I AVERAGE MISS LATENCY: 273.328 cycles
cpu0_STLB TOTAL     ACCESS:    3029801  HIT:    2757362  MISS:     272439
cpu0_STLB LOAD      ACCESS:    3028893  HIT:    2756454  MISS:     272439
cpu0_STLB RFO       ACCESS:        908  HIT:        908  MISS:          0
cpu0_STLB PREFETCH  ACCESS:          0  HIT:          0  MISS:          0
cpu0_STLB WRITEBACK ACCESS:          0  HIT:          0  MISS:          0
cpu0_STLB TRANSLATION ACCESS:          0  HIT:          0  MISS:          0
cpu0_STLB PREFETCH  REQUESTED:          0  ISSUED:          0  USEFUL:          0  USELESS:          0
cpu0_STLB AVERAGE MISS LATENCY: 51.6379 cycles
cpu0_L1D TOTAL     ACCESS:   34799747  HIT:   26556938  MISS:    8242809
cpu0_L1D LOAD      ACCESS:   22667572  HIT:   14448371  MISS:    8219201
cpu0_L1D RFO       ACCESS:   11865104  HIT:   11865098  MISS:          6
cpu0_L1D PREFETCH  ACCESS:          0  HIT:          0  MISS:          0
cpu0_L1D WRITEBACK ACCESS:          0  HIT:          0  MISS:          0
cpu0_L1D TRANSLATION ACCESS:     267071  HIT:     243469  MISS:      23602
cpu0_L1D PREFETCH  REQUESTED:          0  ISSUED:          0  USEFUL:          0  USELESS:          0
cpu0_L1D AVERAGE MISS LATENCY: 68.9927 cycles
cpu0_L2C TOTAL     ACCESS:    9425515  HIT:    7964784  MISS:    1460731
cpu0_L2C LOAD      ACCESS:    8219323  HIT:    6759213  MISS:    1460110
cpu0_L2C RFO       ACCESS:          6  HIT:          6  MISS:          0
cpu0_L2C PREFETCH  ACCESS:          0  HIT:          0  MISS:          0
cpu0_L2C WRITEBACK ACCESS:    1182584  HIT:    1182547  MISS:         37
cpu0_L2C TRANSLATION ACCESS:      23602  HIT:      23018  MISS:        584
cpu0_L2C PREFETCH  REQUESTED:          0  ISSUED:          0  USEFUL:          0  USELESS:          0
cpu0_L2C AVERAGE MISS LATENCY: 325.316 cycles
LLC TOTAL     ACCESS:    1476035  HIT:      40987  MISS:    1435048
LLC LOAD      ACCESS:    1460098  HIT:      28231  MISS:    1431867
LLC RFO       ACCESS:          0  HIT:          0  MISS:          0
LLC PREFETCH  ACCESS:          0  HIT:          0  MISS:          0
LLC WRITEBACK ACCESS:      15353  HIT:      12527  MISS:       2826
LLC TRANSLATION ACCESS:        584  HIT:        229  MISS:        355
LLC PREFETCH  REQUESTED:          0  ISSUED:          0  USEFUL:          0  USELESS:          0
LLC AVERAGE MISS LATENCY: 309.763 cycles
OPTgen accesses: 24418
OPTgen hits: 2161
OPTgen hit rate: 8.85003



DRAM Statistics
 CHANNEL 0
 RQ ROW_BUFFER_HIT:         69  ROW_BUFFER_MISS:    1432022
 DBUS AVG_CONGESTED_CYCLE:    3.94793
 WQ ROW_BUFFER_HIT:       1043  ROW_BUFFER_MISS:       6160  FULL:          0


CPU 0 Branch Prediction Accuracy: 98.9038% MPKI: 0.06477 Average ROB Occupancy at Mispredict: 248.63
Branch type MPKI
BRANCH_DIRECT_JUMP: 0
BRANCH_INDIRECT: 0
BRANCH_CONDITIONAL: 0.06477
BRANCH_DIRECT_CALL: 0
BRANCH_INDIRECT_CALL: 0
BRANCH_RETURN: 0

