
*** ChampSim Multicore Out-of-Order Simulator ***

Warmup Instructions: 10000000
Simulation Instructions: 100000000
Number of CPUs: 1
Off-chip DRAM Size: 4 GiB Channels: 1 Width: 64-bit Data Rate: 3200 MT/s

VirtualMemory physical capacity: 8588881920 num_ppages: 2096895
VirtualMemory page size: 4096 log2_page_size: 12

CPU 0 runs /datasets/cs240c-wi22-a00-public/data/Assignment2/omnetpp_17B.trace.xz
CPU 0 Bimodal branch predictor
Basic BTB sets: 1024 ways: 8 indirect buffer size: 4096 RAS size: 64
Initialize Hawkeye state
Heartbeat CPU 0 instructions: 10000002 cycles: 2500125 heartbeat IPC: 3.9998 cumulative IPC: 3.9998 (Simulation time: 0 hr 0 min 26 sec) 

Warmup complete CPU 0 instructions: 10000002 cycles: 2500125 (Simulation time: 0 hr 0 min 26 sec) 

Heartbeat CPU 0 instructions: 20000003 cycles: 8427574 heartbeat IPC: 1.68707 cumulative IPC: 1.68707 (Simulation time: 0 hr 0 min 59 sec) 
Heartbeat CPU 0 instructions: 30000000 cycles: 17678910 heartbeat IPC: 1.08092 cumulative IPC: 1.31763 (Simulation time: 0 hr 1 min 56 sec) 
Heartbeat CPU 0 instructions: 40000001 cycles: 27390157 heartbeat IPC: 1.02973 cumulative IPC: 1.2053 (Simulation time: 0 hr 2 min 56 sec) 
Heartbeat CPU 0 instructions: 50000001 cycles: 34239822 heartbeat IPC: 1.45993 cumulative IPC: 1.26025 (Simulation time: 0 hr 3 min 36 sec) 
Heartbeat CPU 0 instructions: 60000001 cycles: 41626272 heartbeat IPC: 1.35383 cumulative IPC: 1.27792 (Simulation time: 0 hr 4 min 20 sec) 
Heartbeat CPU 0 instructions: 70000000 cycles: 51028859 heartbeat IPC: 1.06354 cumulative IPC: 1.23638 (Simulation time: 0 hr 5 min 18 sec) 
Heartbeat CPU 0 instructions: 80000002 cycles: 60491588 heartbeat IPC: 1.05678 cumulative IPC: 1.20707 (Simulation time: 0 hr 6 min 15 sec) 
Heartbeat CPU 0 instructions: 90000003 cycles: 69832068 heartbeat IPC: 1.07061 cumulative IPC: 1.18814 (Simulation time: 0 hr 7 min 13 sec) 
Heartbeat CPU 0 instructions: 100000002 cycles: 75176738 heartbeat IPC: 1.87102 cumulative IPC: 1.23836 (Simulation time: 0 hr 7 min 42 sec) 
Heartbeat CPU 0 instructions: 110000001 cycles: 84420529 heartbeat IPC: 1.08181 cumulative IPC: 1.2207 (Simulation time: 0 hr 8 min 39 sec) 
Finished CPU 0 instructions: 100000004 cycles: 81920411 cumulative IPC: 1.2207 (Simulation time: 0 hr 8 min 39 sec) 

ChampSim completed all CPUs

Region of Interest Statistics

CPU 0 cumulative IPC: 1.2207 instructions: 100000004 cycles: 81920411
cpu0_DTLB TOTAL     ACCESS:   10199285  HIT:    9134467  MISS:    1064818
cpu0_DTLB LOAD      ACCESS:    8261807  HIT:    7198869  MISS:    1062938
cpu0_DTLB RFO       ACCESS:    1937478  HIT:    1935598  MISS:       1880
cpu0_DTLB PREFETCH  ACCESS:          0  HIT:          0  MISS:          0
cpu0_DTLB WRITEBACK ACCESS:          0  HIT:          0  MISS:          0
cpu0_DTLB TRANSLATION ACCESS:          0  HIT:          0  MISS:          0
cpu0_DTLB PREFETCH  REQUESTED:          0  ISSUED:          0  USEFUL:          0  USELESS:          0
cpu0_DTLB AVERAGE MISS LATENCY: 20.9419 cycles
cpu0_ITLB TOTAL     ACCESS:    8332843  HIT:    8330786  MISS:       2057
cpu0_ITLB LOAD      ACCESS:    8332843  HIT:    8330786  MISS:       2057
cpu0_ITLB RFO       ACCESS:          0  HIT:          0  MISS:          0
cpu0_ITLB PREFETCH  ACCESS:          0  HIT:          0  MISS:          0
cpu0_ITLB WRITEBACK ACCESS:          0  HIT:          0  MISS:          0
cpu0_ITLB TRANSLATION ACCESS:          0  HIT:          0  MISS:          0
cpu0_ITLB PREFETCH  REQUESTED:          0  ISSUED:          0  USEFUL:          0  USELESS:          0
cpu0_ITLB AVERAGE MISS LATENCY: 15.6315 cycles
cpu0_L1I TOTAL     ACCESS:    1054828  HIT:    1050496  MISS:       4332
cpu0_L1I LOAD      ACCESS:    1054828  HIT:    1050496  MISS:       4332
cpu0_L1I RFO       ACCESS:          0  HIT:          0  MISS:          0
cpu0_L1I PREFETCH  ACCESS:          0  HIT:          0  MISS:          0
cpu0_L1I WRITEBACK ACCESS:          0  HIT:          0  MISS:          0
cpu0_L1I TRANSLATION ACCESS:          0  HIT:          0  MISS:          0
cpu0_L1I PREFETCH  REQUESTED:          0  ISSUED:          0  USEFUL:          0  USELESS:          0
cpu0_L1I AVERAGE MISS LATENCY: 91.7424 cycles
cpu0_STLB TOTAL     ACCESS:    1066875  HIT:      12760  MISS:    1054115
cpu0_STLB LOAD      ACCESS:    1064995  HIT:      11396  MISS:    1053599
cpu0_STLB RFO       ACCESS:       1880  HIT:       1364  MISS:        516
cpu0_STLB PREFETCH  ACCESS:          0  HIT:          0  MISS:          0
cpu0_STLB WRITEBACK ACCESS:          0  HIT:          0  MISS:          0
cpu0_STLB TRANSLATION ACCESS:          0  HIT:          0  MISS:          0
cpu0_STLB PREFETCH  REQUESTED:          0  ISSUED:          0  USEFUL:          0  USELESS:          0
cpu0_STLB AVERAGE MISS LATENCY: 11.6077 cycles
cpu0_L1D TOTAL     ACCESS:   10193541  HIT:    8439095  MISS:    1754446
cpu0_L1D LOAD      ACCESS:    6380614  HIT:    4640325  MISS:    1740289
cpu0_L1D RFO       ACCESS:    3337673  HIT:    3324615  MISS:      13058
cpu0_L1D PREFETCH  ACCESS:          0  HIT:          0  MISS:          0
cpu0_L1D WRITEBACK ACCESS:          0  HIT:          0  MISS:          0
cpu0_L1D TRANSLATION ACCESS:     475254  HIT:     474155  MISS:       1099
cpu0_L1D PREFETCH  REQUESTED:          0  ISSUED:          0  USEFUL:          0  USELESS:          0
cpu0_L1D AVERAGE MISS LATENCY: 203.002 cycles
cpu0_L2C TOTAL     ACCESS:    1775595  HIT:      23316  MISS:    1752279
cpu0_L2C LOAD      ACCESS:    1744621  HIT:       5922  MISS:    1738699
cpu0_L2C RFO       ACCESS:      13058  HIT:        137  MISS:      12921
cpu0_L2C PREFETCH  ACCESS:          0  HIT:          0  MISS:          0
cpu0_L2C WRITEBACK ACCESS:      16817  HIT:      16817  MISS:          0
cpu0_L2C TRANSLATION ACCESS:       1099  HIT:        440  MISS:        659
cpu0_L2C PREFETCH  REQUESTED:          0  ISSUED:          0  USEFUL:          0  USELESS:          0
cpu0_L2C AVERAGE MISS LATENCY: 191.906 cycles
LLC TOTAL     ACCESS:    1768992  HIT:    1063929  MISS:     705063
LLC LOAD      ACCESS:    1738699  HIT:    1052635  MISS:     686064
LLC RFO       ACCESS:      12921  HIT:       1722  MISS:      11199
LLC PREFETCH  ACCESS:          0  HIT:          0  MISS:          0
LLC WRITEBACK ACCESS:      16713  HIT:       9279  MISS:       7434
LLC TRANSLATION ACCESS:        659  HIT:        293  MISS:        366
LLC PREFETCH  REQUESTED:          0  ISSUED:          0  USEFUL:          0  USELESS:          0
LLC AVERAGE MISS LATENCY: 424.732 cycles
OPTgen accesses: 29542
OPTgen hits: 24298
OPTgen hit rate: 82.249



DRAM Statistics
 CHANNEL 0
 RQ ROW_BUFFER_HIT:      14468  ROW_BUFFER_MISS:     682953
 DBUS AVG_CONGESTED_CYCLE:    3.97969
 WQ ROW_BUFFER_HIT:       1289  ROW_BUFFER_MISS:      11433  FULL:          0


CPU 0 Branch Prediction Accuracy: 97.6159% MPKI: 7.87238 Average ROB Occupancy at Mispredict: 63.3988
Branch type MPKI
BRANCH_DIRECT_JUMP: 0.00032
BRANCH_INDIRECT: 0.08474
BRANCH_CONDITIONAL: 7.75802
BRANCH_DIRECT_CALL: 0.00068
BRANCH_INDIRECT_CALL: 0.00292
BRANCH_RETURN: 0.0257

