
*** ChampSim Multicore Out-of-Order Simulator ***

Warmup Instructions: 10000000
Simulation Instructions: 100000000
Number of CPUs: 1
Off-chip DRAM Size: 4 GiB Channels: 1 Width: 64-bit Data Rate: 3200 MT/s

VirtualMemory physical capacity: 8588881920 num_ppages: 2096895
VirtualMemory page size: 4096 log2_page_size: 12

CPU 0 runs /datasets/cs240c-wi22-a00-public/data/Assignment2/cactusADM_734B.trace.xz
CPU 0 Bimodal branch predictor
Basic BTB sets: 1024 ways: 8 indirect buffer size: 4096 RAS size: 64
Initialize Hawkeye state
Heartbeat CPU 0 instructions: 10000002 cycles: 3647078 heartbeat IPC: 2.74192 cumulative IPC: 2.74192 (Simulation time: 0 hr 0 min 52 sec) 

Warmup complete CPU 0 instructions: 10000002 cycles: 3647078 (Simulation time: 0 hr 0 min 52 sec) 

Heartbeat CPU 0 instructions: 20000004 cycles: 13326687 heartbeat IPC: 1.0331 cumulative IPC: 1.0331 (Simulation time: 0 hr 2 min 19 sec) 
Heartbeat CPU 0 instructions: 30000001 cycles: 22640666 heartbeat IPC: 1.07365 cumulative IPC: 1.05299 (Simulation time: 0 hr 3 min 46 sec) 
Heartbeat CPU 0 instructions: 40000004 cycles: 31631218 heartbeat IPC: 1.11228 cumulative IPC: 1.07204 (Simulation time: 0 hr 5 min 12 sec) 
Heartbeat CPU 0 instructions: 50000000 cycles: 40409505 heartbeat IPC: 1.13917 cumulative IPC: 1.08807 (Simulation time: 0 hr 6 min 38 sec) 
Heartbeat CPU 0 instructions: 60000002 cycles: 46748056 heartbeat IPC: 1.57765 cumulative IPC: 1.16007 (Simulation time: 0 hr 7 min 54 sec) 
Heartbeat CPU 0 instructions: 70000003 cycles: 55498018 heartbeat IPC: 1.14286 cumulative IPC: 1.15716 (Simulation time: 0 hr 9 min 26 sec) 
Heartbeat CPU 0 instructions: 80000002 cycles: 64102391 heartbeat IPC: 1.1622 cumulative IPC: 1.15788 (Simulation time: 0 hr 11 min 1 sec) 
Heartbeat CPU 0 instructions: 90000000 cycles: 72838218 heartbeat IPC: 1.14471 cumulative IPC: 1.15622 (Simulation time: 0 hr 12 min 34 sec) 
Heartbeat CPU 0 instructions: 100000004 cycles: 79256910 heartbeat IPC: 1.55795 cumulative IPC: 1.19032 (Simulation time: 0 hr 13 min 55 sec) 
Heartbeat CPU 0 instructions: 110000001 cycles: 88056427 heartbeat IPC: 1.13643 cumulative IPC: 1.1847 (Simulation time: 0 hr 15 min 29 sec) 
Finished CPU 0 instructions: 100000004 cycles: 84409350 cumulative IPC: 1.1847 (Simulation time: 0 hr 15 min 29 sec) 

ChampSim completed all CPUs

Region of Interest Statistics

CPU 0 cumulative IPC: 1.1847 instructions: 100000004 cycles: 84409350
cpu0_DTLB TOTAL     ACCESS:   21694048  HIT:   19849274  MISS:    1844774
cpu0_DTLB LOAD      ACCESS:   17823409  HIT:   16566207  MISS:    1257202
cpu0_DTLB RFO       ACCESS:    3870639  HIT:    3283067  MISS:     587572
cpu0_DTLB PREFETCH  ACCESS:          0  HIT:          0  MISS:          0
cpu0_DTLB WRITEBACK ACCESS:          0  HIT:          0  MISS:          0
cpu0_DTLB TRANSLATION ACCESS:          0  HIT:          0  MISS:          0
cpu0_DTLB PREFETCH  REQUESTED:          0  ISSUED:          0  USEFUL:          0  USELESS:          0
cpu0_DTLB AVERAGE MISS LATENCY: 17.2597 cycles
cpu0_ITLB TOTAL     ACCESS:    1527264  HIT:    1527264  MISS:          0
cpu0_ITLB LOAD      ACCESS:    1527264  HIT:    1527264  MISS:          0
cpu0_ITLB RFO       ACCESS:          0  HIT:          0  MISS:          0
cpu0_ITLB PREFETCH  ACCESS:          0  HIT:          0  MISS:          0
cpu0_ITLB WRITEBACK ACCESS:          0  HIT:          0  MISS:          0
cpu0_ITLB TRANSLATION ACCESS:          0  HIT:          0  MISS:          0
cpu0_ITLB PREFETCH  REQUESTED:          0  ISSUED:          0  USEFUL:          0  USELESS:          0
cpu0_ITLB AVERAGE MISS LATENCY: -nan cycles
cpu0_L1I TOTAL     ACCESS:    7865638  HIT:    7865635  MISS:          3
cpu0_L1I LOAD      ACCESS:    7865638  HIT:    7865635  MISS:          3
cpu0_L1I RFO       ACCESS:          0  HIT:          0  MISS:          0
cpu0_L1I PREFETCH  ACCESS:          0  HIT:          0  MISS:          0
cpu0_L1I WRITEBACK ACCESS:          0  HIT:          0  MISS:          0
cpu0_L1I TRANSLATION ACCESS:          0  HIT:          0  MISS:          0
cpu0_L1I PREFETCH  REQUESTED:          0  ISSUED:          0  USEFUL:          0  USELESS:          0
cpu0_L1I AVERAGE MISS LATENCY: 493.333 cycles
cpu0_STLB TOTAL     ACCESS:    1844774  HIT:     890310  MISS:     954464
cpu0_STLB LOAD      ACCESS:    1257202  HIT:     640450  MISS:     616752
cpu0_STLB RFO       ACCESS:     587572  HIT:     249860  MISS:     337712
cpu0_STLB PREFETCH  ACCESS:          0  HIT:          0  MISS:          0
cpu0_STLB WRITEBACK ACCESS:          0  HIT:          0  MISS:          0
cpu0_STLB TRANSLATION ACCESS:          0  HIT:          0  MISS:          0
cpu0_STLB PREFETCH  REQUESTED:          0  ISSUED:          0  USEFUL:          0  USELESS:          0
cpu0_STLB AVERAGE MISS LATENCY: 15.8421 cycles
cpu0_L1D TOTAL     ACCESS:   37597086  HIT:   36276852  MISS:    1320234
cpu0_L1D LOAD      ACCESS:   25659948  HIT:   24609216  MISS:    1050732
cpu0_L1D RFO       ACCESS:   10983643  HIT:   10719495  MISS:     264148
cpu0_L1D PREFETCH  ACCESS:          0  HIT:          0  MISS:          0
cpu0_L1D WRITEBACK ACCESS:          0  HIT:          0  MISS:          0
cpu0_L1D TRANSLATION ACCESS:     953495  HIT:     948141  MISS:       5354
cpu0_L1D PREFETCH  REQUESTED:          0  ISSUED:          0  USEFUL:          0  USELESS:          0
cpu0_L1D AVERAGE MISS LATENCY: 288.39 cycles
cpu0_L2C TOTAL     ACCESS:    1588191  HIT:     691791  MISS:     896400
cpu0_L2C LOAD      ACCESS:    1050735  HIT:     418926  MISS:     631809
cpu0_L2C RFO       ACCESS:     264148  HIT:          0  MISS:     264148
cpu0_L2C PREFETCH  ACCESS:          0  HIT:          0  MISS:          0
cpu0_L2C WRITEBACK ACCESS:     267954  HIT:     267758  MISS:        196
cpu0_L2C TRANSLATION ACCESS:       5354  HIT:       5107  MISS:        247
cpu0_L2C PREFETCH  REQUESTED:          0  ISSUED:          0  USEFUL:          0  USELESS:          0
cpu0_L2C AVERAGE MISS LATENCY: 408.525 cycles
LLC TOTAL     ACCESS:    1162860  HIT:     343155  MISS:     819705
LLC LOAD      ACCESS:     631809  HIT:     152575  MISS:     479234
LLC RFO       ACCESS:     264148  HIT:      82009  MISS:     182139
LLC PREFETCH  ACCESS:          0  HIT:          0  MISS:          0
LLC WRITEBACK ACCESS:     266656  HIT:     108554  MISS:     158102
LLC TRANSLATION ACCESS:        247  HIT:         17  MISS:        230
LLC PREFETCH  REQUESTED:          0  ISSUED:          0  USEFUL:          0  USELESS:          0
LLC AVERAGE MISS LATENCY: 423.787 cycles
OPTgen accesses: 15000
OPTgen hits: 4754
OPTgen hit rate: 31.6933



DRAM Statistics
 CHANNEL 0
 RQ ROW_BUFFER_HIT:       6454  ROW_BUFFER_MISS:     655127
 DBUS AVG_CONGESTED_CYCLE:    3.97941
 WQ ROW_BUFFER_HIT:      17458  ROW_BUFFER_MISS:     220625  FULL:        399


CPU 0 Branch Prediction Accuracy: 97.7528% MPKI: 0.04677 Average ROB Occupancy at Mispredict: 283.968
Branch type MPKI
BRANCH_DIRECT_JUMP: 0
BRANCH_INDIRECT: 0
BRANCH_CONDITIONAL: 0.04677
BRANCH_DIRECT_CALL: 0
BRANCH_INDIRECT_CALL: 0
BRANCH_RETURN: 0

