
*** ChampSim Multicore Out-of-Order Simulator ***

Warmup Instructions: 10000000
Simulation Instructions: 100000000
Number of CPUs: 1
Off-chip DRAM Size: 4 GiB Channels: 1 Width: 64-bit Data Rate: 3200 MT/s

VirtualMemory physical capacity: 8588881920 num_ppages: 2096895
VirtualMemory page size: 4096 log2_page_size: 12

CPU 0 runs /datasets/cs240c-wi22-a00-public/data/Assignment2/soplex_217B.trace.xz
CPU 0 Bimodal branch predictor
Basic BTB sets: 1024 ways: 8 indirect buffer size: 4096 RAS size: 64
Initialize Hawkeye state
Heartbeat CPU 0 instructions: 10000000 cycles: 2844438 heartbeat IPC: 3.51563 cumulative IPC: 3.51563 (Simulation time: 0 hr 0 min 33 sec) 

Warmup complete CPU 0 instructions: 10000004 cycles: 2844439 (Simulation time: 0 hr 0 min 33 sec) 

Heartbeat CPU 0 instructions: 20000000 cycles: 35764052 heartbeat IPC: 0.30377 cumulative IPC: 0.30377 (Simulation time: 0 hr 2 min 17 sec) 
Heartbeat CPU 0 instructions: 30000004 cycles: 66467025 heartbeat IPC: 0.325701 cumulative IPC: 0.314354 (Simulation time: 0 hr 4 min 1 sec) 
Heartbeat CPU 0 instructions: 40000003 cycles: 98231197 heartbeat IPC: 0.31482 cumulative IPC: 0.314509 (Simulation time: 0 hr 5 min 38 sec) 
Heartbeat CPU 0 instructions: 50000000 cycles: 127558664 heartbeat IPC: 0.340977 cumulative IPC: 0.320733 (Simulation time: 0 hr 7 min 13 sec) 
Heartbeat CPU 0 instructions: 60000002 cycles: 158626925 heartbeat IPC: 0.321872 cumulative IPC: 0.32096 (Simulation time: 0 hr 8 min 49 sec) 
Heartbeat CPU 0 instructions: 70000000 cycles: 203441438 heartbeat IPC: 0.223142 cumulative IPC: 0.299107 (Simulation time: 0 hr 11 min 8 sec) 
Heartbeat CPU 0 instructions: 80000000 cycles: 235819900 heartbeat IPC: 0.308847 cumulative IPC: 0.300461 (Simulation time: 0 hr 12 min 41 sec) 
Heartbeat CPU 0 instructions: 90000002 cycles: 264609490 heartbeat IPC: 0.347348 cumulative IPC: 0.305618 (Simulation time: 0 hr 14 min 22 sec) 
Heartbeat CPU 0 instructions: 100000003 cycles: 297359758 heartbeat IPC: 0.305341 cumulative IPC: 0.305587 (Simulation time: 0 hr 16 min 12 sec) 
Heartbeat CPU 0 instructions: 110000000 cycles: 326083384 heartbeat IPC: 0.348145 cumulative IPC: 0.309369 (Simulation time: 0 hr 17 min 33 sec) 
Finished CPU 0 instructions: 100000000 cycles: 323238947 cumulative IPC: 0.309369 (Simulation time: 0 hr 17 min 33 sec) 

ChampSim completed all CPUs

Region of Interest Statistics

CPU 0 cumulative IPC: 0.309369 instructions: 100000000 cycles: 323238947
cpu0_DTLB TOTAL     ACCESS:   21849443  HIT:   20983433  MISS:     866010
cpu0_DTLB LOAD      ACCESS:   16690399  HIT:   16006380  MISS:     684019
cpu0_DTLB RFO       ACCESS:    5159044  HIT:    4977053  MISS:     181991
cpu0_DTLB PREFETCH  ACCESS:          0  HIT:          0  MISS:          0
cpu0_DTLB WRITEBACK ACCESS:          0  HIT:          0  MISS:          0
cpu0_DTLB TRANSLATION ACCESS:          0  HIT:          0  MISS:          0
cpu0_DTLB PREFETCH  REQUESTED:          0  ISSUED:          0  USEFUL:          0  USELESS:          0
cpu0_DTLB AVERAGE MISS LATENCY: 14.6799 cycles
cpu0_ITLB TOTAL     ACCESS:    8499080  HIT:    8499062  MISS:         18
cpu0_ITLB LOAD      ACCESS:    8499080  HIT:    8499062  MISS:         18
cpu0_ITLB RFO       ACCESS:          0  HIT:          0  MISS:          0
cpu0_ITLB PREFETCH  ACCESS:          0  HIT:          0  MISS:          0
cpu0_ITLB WRITEBACK ACCESS:          0  HIT:          0  MISS:          0
cpu0_ITLB TRANSLATION ACCESS:          0  HIT:          0  MISS:          0
cpu0_ITLB PREFETCH  REQUESTED:          0  ISSUED:          0  USEFUL:          0  USELESS:          0
cpu0_ITLB AVERAGE MISS LATENCY: 501 cycles
cpu0_L1I TOTAL     ACCESS:     356541  HIT:     355888  MISS:        653
cpu0_L1I LOAD      ACCESS:     356541  HIT:     355888  MISS:        653
cpu0_L1I RFO       ACCESS:          0  HIT:          0  MISS:          0
cpu0_L1I PREFETCH  ACCESS:          0  HIT:          0  MISS:          0
cpu0_L1I WRITEBACK ACCESS:          0  HIT:          0  MISS:          0
cpu0_L1I TRANSLATION ACCESS:          0  HIT:          0  MISS:          0
cpu0_L1I PREFETCH  REQUESTED:          0  ISSUED:          0  USEFUL:          0  USELESS:          0
cpu0_L1I AVERAGE MISS LATENCY: 322.043 cycles
cpu0_STLB TOTAL     ACCESS:     866028  HIT:     742514  MISS:     123514
cpu0_STLB LOAD      ACCESS:     684037  HIT:     569873  MISS:     114164
cpu0_STLB RFO       ACCESS:     181991  HIT:     172641  MISS:       9350
cpu0_STLB PREFETCH  ACCESS:          0  HIT:          0  MISS:          0
cpu0_STLB WRITEBACK ACCESS:          0  HIT:          0  MISS:          0
cpu0_STLB TRANSLATION ACCESS:          0  HIT:          0  MISS:          0
cpu0_STLB PREFETCH  REQUESTED:          0  ISSUED:          0  USEFUL:          0  USELESS:          0
cpu0_STLB AVERAGE MISS LATENCY: 38.7219 cycles
cpu0_L1D TOTAL     ACCESS:   18107991  HIT:   12283994  MISS:    5823997
cpu0_L1D LOAD      ACCESS:   12226126  HIT:    7231791  MISS:    4994335
cpu0_L1D RFO       ACCESS:    5761905  HIT:    4937265  MISS:     824640
cpu0_L1D PREFETCH  ACCESS:          0  HIT:          0  MISS:          0
cpu0_L1D WRITEBACK ACCESS:          0  HIT:          0  MISS:          0
cpu0_L1D TRANSLATION ACCESS:     119960  HIT:     114938  MISS:       5022
cpu0_L1D PREFETCH  REQUESTED:          0  ISSUED:          0  USEFUL:          0  USELESS:          0
cpu0_L1D AVERAGE MISS LATENCY: 205.563 cycles
cpu0_L2C TOTAL     ACCESS:    8411803  HIT:    3954564  MISS:    4457239
cpu0_L2C LOAD      ACCESS:    4994417  HIT:    1232150  MISS:    3762267
cpu0_L2C RFO       ACCESS:     824582  HIT:     130465  MISS:     694117
cpu0_L2C PREFETCH  ACCESS:          0  HIT:          0  MISS:          0
cpu0_L2C WRITEBACK ACCESS:    2587782  HIT:    2587679  MISS:        103
cpu0_L2C TRANSLATION ACCESS:       5022  HIT:       4270  MISS:        752
cpu0_L2C PREFETCH  REQUESTED:          0  ISSUED:          0  USEFUL:          0  USELESS:          0
cpu0_L2C AVERAGE MISS LATENCY: 254.035 cycles
LLC TOTAL     ACCESS:    6308067  HIT:    3180426  MISS:    3127641
LLC LOAD      ACCESS:    3762255  HIT:    1430833  MISS:    2331422
LLC RFO       ACCESS:     694114  HIT:     267282  MISS:     426832
LLC PREFETCH  ACCESS:          0  HIT:          0  MISS:          0
LLC WRITEBACK ACCESS:    1850946  HIT:    1481981  MISS:     368965
LLC TRANSLATION ACCESS:        752  HIT:        330  MISS:        422
LLC PREFETCH  REQUESTED:          0  ISSUED:          0  USEFUL:          0  USELESS:          0
LLC AVERAGE MISS LATENCY: 331.596 cycles
OPTgen accesses: 77570
OPTgen hits: 30787
OPTgen hit rate: 39.6893



DRAM Statistics
 CHANNEL 0
 RQ ROW_BUFFER_HIT:     265188  ROW_BUFFER_MISS:    2490599
 DBUS AVG_CONGESTED_CYCLE:    3.95221
 WQ ROW_BUFFER_HIT:      40938  ROW_BUFFER_MISS:     937279  FULL:     347009


CPU 0 Branch Prediction Accuracy: 93.2069% MPKI: 14.28 Average ROB Occupancy at Mispredict: 49.3488
Branch type MPKI
BRANCH_DIRECT_JUMP: 0.00099
BRANCH_INDIRECT: 0.00023
BRANCH_CONDITIONAL: 14.2767
BRANCH_DIRECT_CALL: 0.00062
BRANCH_INDIRECT_CALL: 0.00054
BRANCH_RETURN: 0.00093

