
*** ChampSim Multicore Out-of-Order Simulator ***

Warmup Instructions: 10000000
Simulation Instructions: 100000000
Number of CPUs: 1
Off-chip DRAM Size: 4 GiB Channels: 1 Width: 64-bit Data Rate: 3200 MT/s

VirtualMemory physical capacity: 8588881920 num_ppages: 2096895
VirtualMemory page size: 4096 log2_page_size: 12

CPU 0 runs /datasets/cs240c-wi22-a00-public/data/Assignment2/lbm_564B.trace.xz
CPU 0 Bimodal branch predictor
Basic BTB sets: 1024 ways: 8 indirect buffer size: 4096 RAS size: 64
Initialize Hawkeye state
Heartbeat CPU 0 instructions: 10000000 cycles: 2507076 heartbeat IPC: 3.98871 cumulative IPC: 3.98871 (Simulation time: 0 hr 0 min 27 sec) 

Warmup complete CPU 0 instructions: 10000004 cycles: 2507077 (Simulation time: 0 hr 0 min 27 sec) 

Heartbeat CPU 0 instructions: 20000004 cycles: 33555419 heartbeat IPC: 0.322078 cumulative IPC: 0.322078 (Simulation time: 0 hr 2 min 51 sec) 
Heartbeat CPU 0 instructions: 30000000 cycles: 88522455 heartbeat IPC: 0.181927 cumulative IPC: 0.232517 (Simulation time: 0 hr 7 min 42 sec) 
Heartbeat CPU 0 instructions: 40000000 cycles: 119670669 heartbeat IPC: 0.321046 cumulative IPC: 0.256052 (Simulation time: 0 hr 10 min 6 sec) 
Heartbeat CPU 0 instructions: 50000000 cycles: 150428038 heartbeat IPC: 0.325125 cumulative IPC: 0.270415 (Simulation time: 0 hr 12 min 31 sec) 
Heartbeat CPU 0 instructions: 60000001 cycles: 181213416 heartbeat IPC: 0.32483 cumulative IPC: 0.279789 (Simulation time: 0 hr 14 min 56 sec) 
Heartbeat CPU 0 instructions: 70000002 cycles: 213973973 heartbeat IPC: 0.305245 cumulative IPC: 0.283732 (Simulation time: 0 hr 17 min 28 sec) 
Heartbeat CPU 0 instructions: 80000000 cycles: 247441991 heartbeat IPC: 0.298793 cumulative IPC: 0.28579 (Simulation time: 0 hr 20 min 7 sec) 
Heartbeat CPU 0 instructions: 90000003 cycles: 281092901 heartbeat IPC: 0.297169 cumulative IPC: 0.287165 (Simulation time: 0 hr 22 min 47 sec) 
Heartbeat CPU 0 instructions: 100000004 cycles: 315415968 heartbeat IPC: 0.291349 cumulative IPC: 0.287624 (Simulation time: 0 hr 25 min 31 sec) 
Heartbeat CPU 0 instructions: 110000003 cycles: 350363321 heartbeat IPC: 0.286145 cumulative IPC: 0.287475 (Simulation time: 0 hr 28 min 19 sec) 
Finished CPU 0 instructions: 100000004 cycles: 347856245 cumulative IPC: 0.287475 (Simulation time: 0 hr 28 min 19 sec) 

ChampSim completed all CPUs

Region of Interest Statistics

CPU 0 cumulative IPC: 0.287475 instructions: 100000004 cycles: 347856245
cpu0_DTLB TOTAL     ACCESS:   13900085  HIT:   13847311  MISS:      52774
cpu0_DTLB LOAD      ACCESS:    6991732  HIT:    6978533  MISS:      13199
cpu0_DTLB RFO       ACCESS:    6908353  HIT:    6868778  MISS:      39575
cpu0_DTLB PREFETCH  ACCESS:          0  HIT:          0  MISS:          0
cpu0_DTLB WRITEBACK ACCESS:          0  HIT:          0  MISS:          0
cpu0_DTLB TRANSLATION ACCESS:          0  HIT:          0  MISS:          0
cpu0_DTLB PREFETCH  REQUESTED:          0  ISSUED:          0  USEFUL:          0  USELESS:          0
cpu0_DTLB AVERAGE MISS LATENCY: 444.663 cycles
cpu0_ITLB TOTAL     ACCESS:     149878  HIT:     149877  MISS:          1
cpu0_ITLB LOAD      ACCESS:     149878  HIT:     149877  MISS:          1
cpu0_ITLB RFO       ACCESS:          0  HIT:          0  MISS:          0
cpu0_ITLB PREFETCH  ACCESS:          0  HIT:          0  MISS:          0
cpu0_ITLB WRITEBACK ACCESS:          0  HIT:          0  MISS:          0
cpu0_ITLB TRANSLATION ACCESS:          0  HIT:          0  MISS:          0
cpu0_ITLB PREFETCH  REQUESTED:          0  ISSUED:          0  USEFUL:          0  USELESS:          0
cpu0_ITLB AVERAGE MISS LATENCY: 697 cycles
cpu0_L1I TOTAL     ACCESS:         12  HIT:          6  MISS:          6
cpu0_L1I LOAD      ACCESS:         12  HIT:          6  MISS:          6
cpu0_L1I RFO       ACCESS:          0  HIT:          0  MISS:          0
cpu0_L1I PREFETCH  ACCESS:          0  HIT:          0  MISS:          0
cpu0_L1I WRITEBACK ACCESS:          0  HIT:          0  MISS:          0
cpu0_L1I TRANSLATION ACCESS:          0  HIT:          0  MISS:          0
cpu0_L1I PREFETCH  REQUESTED:          0  ISSUED:          0  USEFUL:          0  USELESS:          0
cpu0_L1I AVERAGE MISS LATENCY: 378.333 cycles
cpu0_STLB TOTAL     ACCESS:      52775  HIT:          5  MISS:      52770
cpu0_STLB LOAD      ACCESS:      13200  HIT:          0  MISS:      13200
cpu0_STLB RFO       ACCESS:      39575  HIT:          5  MISS:      39570
cpu0_STLB PREFETCH  ACCESS:          0  HIT:          0  MISS:          0
cpu0_STLB WRITEBACK ACCESS:          0  HIT:          0  MISS:          0
cpu0_STLB TRANSLATION ACCESS:          0  HIT:          0  MISS:          0
cpu0_STLB PREFETCH  REQUESTED:          0  ISSUED:          0  USEFUL:          0  USELESS:          0
cpu0_STLB AVERAGE MISS LATENCY: 435.709 cycles
cpu0_L1D TOTAL     ACCESS:   15376641  HIT:    9810439  MISS:    5566202
cpu0_L1D LOAD      ACCESS:    4367434  HIT:    3523845  MISS:     843589
cpu0_L1D RFO       ACCESS:   10956452  HIT:    6233890  MISS:    4722562
cpu0_L1D PREFETCH  ACCESS:          0  HIT:          0  MISS:          0
cpu0_L1D WRITEBACK ACCESS:          0  HIT:          0  MISS:          0
cpu0_L1D TRANSLATION ACCESS:      52755  HIT:      52704  MISS:         51
cpu0_L1D PREFETCH  REQUESTED:          0  ISSUED:          0  USEFUL:          0  USELESS:          0
cpu0_L1D AVERAGE MISS LATENCY: 462.976 cycles
cpu0_L2C TOTAL     ACCESS:   10288769  HIT:    6913195  MISS:    3375574
cpu0_L2C LOAD      ACCESS:     843595  HIT:        222  MISS:     843373
cpu0_L2C RFO       ACCESS:    4722562  HIT:    2190537  MISS:    2532025
cpu0_L2C PREFETCH  ACCESS:          0  HIT:          0  MISS:          0
cpu0_L2C WRITEBACK ACCESS:    4722561  HIT:    4722436  MISS:        125
cpu0_L2C TRANSLATION ACCESS:         51  HIT:          0  MISS:         51
cpu0_L2C PREFETCH  REQUESTED:          0  ISSUED:          0  USEFUL:          0  USELESS:          0
cpu0_L2C AVERAGE MISS LATENCY: 743.992 cycles
LLC TOTAL     ACCESS:    5907514  HIT:    1748096  MISS:    4159418
LLC LOAD      ACCESS:     843373  HIT:         30  MISS:     843343
LLC RFO       ACCESS:    2532021  HIT:     603191  MISS:    1928830
LLC PREFETCH  ACCESS:          0  HIT:          0  MISS:          0
LLC WRITEBACK ACCESS:    2532069  HIT:    1144863  MISS:    1387206
LLC TRANSLATION ACCESS:         51  HIT:         12  MISS:         39
LLC PREFETCH  REQUESTED:          0  ISSUED:          0  USEFUL:          0  USELESS:          0
LLC AVERAGE MISS LATENCY: 586.744 cycles
OPTgen accesses: 57392
OPTgen hits: 14206
OPTgen hit rate: 24.7526



DRAM Statistics
 CHANNEL 0
 RQ ROW_BUFFER_HIT:      50490  ROW_BUFFER_MISS:    2721251
 DBUS AVG_CONGESTED_CYCLE:    3.99499
 WQ ROW_BUFFER_HIT:      26452  ROW_BUFFER_MISS:    2140491  FULL:          0


CPU 0 Branch Prediction Accuracy: 99.0902% MPKI: 0.11542 Average ROB Occupancy at Mispredict: 181.968
Branch type MPKI
BRANCH_DIRECT_JUMP: 2e-05
BRANCH_INDIRECT: 0
BRANCH_CONDITIONAL: 0.11536
BRANCH_DIRECT_CALL: 2e-05
BRANCH_INDIRECT_CALL: 0
BRANCH_RETURN: 2e-05

