
*** ChampSim Multicore Out-of-Order Simulator ***

Warmup Instructions: 10000000
Simulation Instructions: 100000000
Number of CPUs: 1
Off-chip DRAM Size: 4 GiB Channels: 1 Width: 64-bit Data Rate: 3200 MT/s

VirtualMemory physical capacity: 8588881920 num_ppages: 2096895
VirtualMemory page size: 4096 log2_page_size: 12

CPU 0 runs /datasets/cs240c-wi22-a00-public/data/Assignment2/milc_744B.trace.xz
CPU 0 Bimodal branch predictor
Basic BTB sets: 1024 ways: 8 indirect buffer size: 4096 RAS size: 64
Initialize Hawkeye state
Heartbeat CPU 0 instructions: 10000000 cycles: 2597395 heartbeat IPC: 3.85001 cumulative IPC: 3.85001 (Simulation time: 0 hr 0 min 35 sec) 

Warmup complete CPU 0 instructions: 10000005 cycles: 2597401 (Simulation time: 0 hr 0 min 35 sec) 

Heartbeat CPU 0 instructions: 20000003 cycles: 16285123 heartbeat IPC: 0.730582 cumulative IPC: 0.730582 (Simulation time: 0 hr 1 min 35 sec) 
Heartbeat CPU 0 instructions: 30000000 cycles: 30022108 heartbeat IPC: 0.727962 cumulative IPC: 0.729269 (Simulation time: 0 hr 2 min 30 sec) 
Heartbeat CPU 0 instructions: 40000001 cycles: 43777593 heartbeat IPC: 0.726983 cumulative IPC: 0.728505 (Simulation time: 0 hr 3 min 24 sec) 
Heartbeat CPU 0 instructions: 50000000 cycles: 57511547 heartbeat IPC: 0.728122 cumulative IPC: 0.72841 (Simulation time: 0 hr 4 min 18 sec) 
Heartbeat CPU 0 instructions: 60000000 cycles: 71237562 heartbeat IPC: 0.728544 cumulative IPC: 0.728436 (Simulation time: 0 hr 5 min 13 sec) 
Heartbeat CPU 0 instructions: 70000002 cycles: 84972006 heartbeat IPC: 0.728097 cumulative IPC: 0.72838 (Simulation time: 0 hr 6 min 7 sec) 
Heartbeat CPU 0 instructions: 80000003 cycles: 98681960 heartbeat IPC: 0.729397 cumulative IPC: 0.728525 (Simulation time: 0 hr 7 min 3 sec) 
Heartbeat CPU 0 instructions: 90000002 cycles: 112359299 heartbeat IPC: 0.731136 cumulative IPC: 0.72885 (Simulation time: 0 hr 7 min 58 sec) 
Heartbeat CPU 0 instructions: 100000002 cycles: 146494271 heartbeat IPC: 0.292955 cumulative IPC: 0.625448 (Simulation time: 0 hr 13 min 8 sec) 
Heartbeat CPU 0 instructions: 110000004 cycles: 156819694 heartbeat IPC: 0.968484 cumulative IPC: 0.648415 (Simulation time: 0 hr 14 min 4 sec) 
Finished CPU 0 instructions: 100000004 cycles: 154222294 cumulative IPC: 0.648415 (Simulation time: 0 hr 14 min 4 sec) 

ChampSim completed all CPUs

Region of Interest Statistics

CPU 0 cumulative IPC: 0.648415 instructions: 100000004 cycles: 154222294
cpu0_DTLB TOTAL     ACCESS:   13559399  HIT:   13424615  MISS:     134784
cpu0_DTLB LOAD      ACCESS:   10516491  HIT:   10388334  MISS:     128157
cpu0_DTLB RFO       ACCESS:    3042908  HIT:    3036281  MISS:       6627
cpu0_DTLB PREFETCH  ACCESS:          0  HIT:          0  MISS:          0
cpu0_DTLB WRITEBACK ACCESS:          0  HIT:          0  MISS:          0
cpu0_DTLB TRANSLATION ACCESS:          0  HIT:          0  MISS:          0
cpu0_DTLB PREFETCH  REQUESTED:          0  ISSUED:          0  USEFUL:          0  USELESS:          0
cpu0_DTLB AVERAGE MISS LATENCY: 148.039 cycles
cpu0_ITLB TOTAL     ACCESS:    8135546  HIT:    8135541  MISS:          5
cpu0_ITLB LOAD      ACCESS:    8135546  HIT:    8135541  MISS:          5
cpu0_ITLB RFO       ACCESS:          0  HIT:          0  MISS:          0
cpu0_ITLB PREFETCH  ACCESS:          0  HIT:          0  MISS:          0
cpu0_ITLB WRITEBACK ACCESS:          0  HIT:          0  MISS:          0
cpu0_ITLB TRANSLATION ACCESS:          0  HIT:          0  MISS:          0
cpu0_ITLB PREFETCH  REQUESTED:          0  ISSUED:          0  USEFUL:          0  USELESS:          0
cpu0_ITLB AVERAGE MISS LATENCY: 219.2 cycles
cpu0_L1I TOTAL     ACCESS:     365358  HIT:     365311  MISS:         47
cpu0_L1I LOAD      ACCESS:     365358  HIT:     365311  MISS:         47
cpu0_L1I RFO       ACCESS:          0  HIT:          0  MISS:          0
cpu0_L1I PREFETCH  ACCESS:          0  HIT:          0  MISS:          0
cpu0_L1I WRITEBACK ACCESS:          0  HIT:          0  MISS:          0
cpu0_L1I TRANSLATION ACCESS:          0  HIT:          0  MISS:          0
cpu0_L1I PREFETCH  REQUESTED:          0  ISSUED:          0  USEFUL:          0  USELESS:          0
cpu0_L1I AVERAGE MISS LATENCY: 353.234 cycles
cpu0_STLB TOTAL     ACCESS:     134789  HIT:       2588  MISS:     132201
cpu0_STLB LOAD      ACCESS:     128162  HIT:       2578  MISS:     125584
cpu0_STLB RFO       ACCESS:       6627  HIT:         10  MISS:       6617
cpu0_STLB PREFETCH  ACCESS:          0  HIT:          0  MISS:          0
cpu0_STLB WRITEBACK ACCESS:          0  HIT:          0  MISS:          0
cpu0_STLB TRANSLATION ACCESS:          0  HIT:          0  MISS:          0
cpu0_STLB PREFETCH  REQUESTED:          0  ISSUED:          0  USEFUL:          0  USELESS:          0
cpu0_STLB AVERAGE MISS LATENCY: 141.754 cycles
cpu0_L1D TOTAL     ACCESS:   13086217  HIT:   11341280  MISS:    1744937
cpu0_L1D LOAD      ACCESS:    6797694  HIT:    5476441  MISS:    1321253
cpu0_L1D RFO       ACCESS:    6157589  HIT:    5734289  MISS:     423300
cpu0_L1D PREFETCH  ACCESS:          0  HIT:          0  MISS:          0
cpu0_L1D WRITEBACK ACCESS:          0  HIT:          0  MISS:          0
cpu0_L1D TRANSLATION ACCESS:     130934  HIT:     130550  MISS:        384
cpu0_L1D PREFETCH  REQUESTED:          0  ISSUED:          0  USEFUL:          0  USELESS:          0
cpu0_L1D AVERAGE MISS LATENCY: 417.697 cycles
cpu0_L2C TOTAL     ACCESS:    2446394  HIT:     701423  MISS:    1744971
cpu0_L2C LOAD      ACCESS:    1321300  HIT:          0  MISS:    1321300
cpu0_L2C RFO       ACCESS:     423300  HIT:          0  MISS:     423300
cpu0_L2C PREFETCH  ACCESS:          0  HIT:          0  MISS:          0
cpu0_L2C WRITEBACK ACCESS:     701410  HIT:     701404  MISS:          6
cpu0_L2C TRANSLATION ACCESS:        384  HIT:         19  MISS:        365
cpu0_L2C PREFETCH  REQUESTED:          0  ISSUED:          0  USEFUL:          0  USELESS:          0
cpu0_L2C AVERAGE MISS LATENCY: 406.63 cycles
LLC TOTAL     ACCESS:    2446271  HIT:      55581  MISS:    2390690
LLC LOAD      ACCESS:    1321300  HIT:       1262  MISS:    1320038
LLC RFO       ACCESS:     423300  HIT:       3078  MISS:     420222
LLC PREFETCH  ACCESS:          0  HIT:          0  MISS:          0
LLC WRITEBACK ACCESS:     701306  HIT:      51185  MISS:     650121
LLC TRANSLATION ACCESS:        365  HIT:         56  MISS:        309
LLC PREFETCH  REQUESTED:          0  ISSUED:          0  USEFUL:          0  USELESS:          0
LLC AVERAGE MISS LATENCY: 281.473 cycles
OPTgen accesses: 29494
OPTgen hits: 171
OPTgen hit rate: 0.579779



DRAM Statistics
 CHANNEL 0
 RQ ROW_BUFFER_HIT:     185621  ROW_BUFFER_MISS:    1554947
 DBUS AVG_CONGESTED_CYCLE:    3.95615
 WQ ROW_BUFFER_HIT:      84115  ROW_BUFFER_MISS:     613703  FULL:          0


CPU 0 Branch Prediction Accuracy: 77.9348% MPKI: 4.47835 Average ROB Occupancy at Mispredict: 303.092
Branch type MPKI
BRANCH_DIRECT_JUMP: 5e-05
BRANCH_INDIRECT: 0
BRANCH_CONDITIONAL: 4.47814
BRANCH_DIRECT_CALL: 8e-05
BRANCH_INDIRECT_CALL: 0
BRANCH_RETURN: 8e-05

