
*** ChampSim Multicore Out-of-Order Simulator ***

Warmup Instructions: 10000000
Simulation Instructions: 100000000
Number of CPUs: 1
Off-chip DRAM Size: 4 GiB Channels: 1 Width: 64-bit Data Rate: 3200 MT/s

VirtualMemory physical capacity: 8588881920 num_ppages: 2096895
VirtualMemory page size: 4096 log2_page_size: 12

CPU 0 runs /datasets/cs240c-wi22-a00-public/data/Assignment2/bzip2_183B.trace.xz
CPU 0 Bimodal branch predictor
Basic BTB sets: 1024 ways: 8 indirect buffer size: 4096 RAS size: 64
Initialize Hawkeye state
Heartbeat CPU 0 instructions: 10000000 cycles: 3166438 heartbeat IPC: 3.15812 cumulative IPC: 3.15812 (Simulation time: 0 hr 0 min 46 sec) 

Warmup complete CPU 0 instructions: 10000005 cycles: 3166440 (Simulation time: 0 hr 0 min 46 sec) 

Heartbeat CPU 0 instructions: 20000000 cycles: 10328596 heartbeat IPC: 1.39623 cumulative IPC: 1.39623 (Simulation time: 0 hr 1 min 30 sec) 
Heartbeat CPU 0 instructions: 30000001 cycles: 17874628 heartbeat IPC: 1.3252 cumulative IPC: 1.35979 (Simulation time: 0 hr 2 min 11 sec) 
Heartbeat CPU 0 instructions: 40000002 cycles: 25292704 heartbeat IPC: 1.34806 cumulative IPC: 1.35585 (Simulation time: 0 hr 2 min 53 sec) 
Heartbeat CPU 0 instructions: 50000001 cycles: 33080902 heartbeat IPC: 1.28399 cumulative IPC: 1.33715 (Simulation time: 0 hr 3 min 34 sec) 
Heartbeat CPU 0 instructions: 60000004 cycles: 40648040 heartbeat IPC: 1.3215 cumulative IPC: 1.33399 (Simulation time: 0 hr 4 min 15 sec) 
Heartbeat CPU 0 instructions: 70000002 cycles: 49188853 heartbeat IPC: 1.17085 cumulative IPC: 1.30371 (Simulation time: 0 hr 4 min 56 sec) 
Heartbeat CPU 0 instructions: 80000000 cycles: 57103778 heartbeat IPC: 1.26344 cumulative IPC: 1.2978 (Simulation time: 0 hr 5 min 37 sec) 
Heartbeat CPU 0 instructions: 90000002 cycles: 65380929 heartbeat IPC: 1.20815 cumulative IPC: 1.28587 (Simulation time: 0 hr 6 min 21 sec) 
Heartbeat CPU 0 instructions: 100000002 cycles: 74520997 heartbeat IPC: 1.09408 cumulative IPC: 1.26131 (Simulation time: 0 hr 7 min 3 sec) 
Heartbeat CPU 0 instructions: 110000003 cycles: 83585393 heartbeat IPC: 1.10322 cumulative IPC: 1.24349 (Simulation time: 0 hr 7 min 45 sec) 
Finished CPU 0 instructions: 100000003 cycles: 80418954 cumulative IPC: 1.24349 (Simulation time: 0 hr 7 min 45 sec) 

ChampSim completed all CPUs

Region of Interest Statistics

CPU 0 cumulative IPC: 1.24349 instructions: 100000003 cycles: 80418954
cpu0_DTLB TOTAL     ACCESS:   21899379  HIT:   21443086  MISS:     456293
cpu0_DTLB LOAD      ACCESS:   17507505  HIT:   17192562  MISS:     314943
cpu0_DTLB RFO       ACCESS:    4391874  HIT:    4250524  MISS:     141350
cpu0_DTLB PREFETCH  ACCESS:          0  HIT:          0  MISS:          0
cpu0_DTLB WRITEBACK ACCESS:          0  HIT:          0  MISS:          0
cpu0_DTLB TRANSLATION ACCESS:          0  HIT:          0  MISS:          0
cpu0_DTLB PREFETCH  REQUESTED:          0  ISSUED:          0  USEFUL:          0  USELESS:          0
cpu0_DTLB AVERAGE MISS LATENCY: 9.25747 cycles
cpu0_ITLB TOTAL     ACCESS:   10077347  HIT:   10077347  MISS:          0
cpu0_ITLB LOAD      ACCESS:   10077347  HIT:   10077347  MISS:          0
cpu0_ITLB RFO       ACCESS:          0  HIT:          0  MISS:          0
cpu0_ITLB PREFETCH  ACCESS:          0  HIT:          0  MISS:          0
cpu0_ITLB WRITEBACK ACCESS:          0  HIT:          0  MISS:          0
cpu0_ITLB TRANSLATION ACCESS:          0  HIT:          0  MISS:          0
cpu0_ITLB PREFETCH  REQUESTED:          0  ISSUED:          0  USEFUL:          0  USELESS:          0
cpu0_ITLB AVERAGE MISS LATENCY: -nan cycles
cpu0_L1I TOTAL     ACCESS:      41247  HIT:      41246  MISS:          1
cpu0_L1I LOAD      ACCESS:      41247  HIT:      41246  MISS:          1
cpu0_L1I RFO       ACCESS:          0  HIT:          0  MISS:          0
cpu0_L1I PREFETCH  ACCESS:          0  HIT:          0  MISS:          0
cpu0_L1I WRITEBACK ACCESS:          0  HIT:          0  MISS:          0
cpu0_L1I TRANSLATION ACCESS:          0  HIT:          0  MISS:          0
cpu0_L1I PREFETCH  REQUESTED:          0  ISSUED:          0  USEFUL:          0  USELESS:          0
cpu0_L1I AVERAGE MISS LATENCY: 194 cycles
cpu0_STLB TOTAL     ACCESS:     456293  HIT:     455900  MISS:        393
cpu0_STLB LOAD      ACCESS:     314943  HIT:     314802  MISS:        141
cpu0_STLB RFO       ACCESS:     141350  HIT:     141098  MISS:        252
cpu0_STLB PREFETCH  ACCESS:          0  HIT:          0  MISS:          0
cpu0_STLB WRITEBACK ACCESS:          0  HIT:          0  MISS:          0
cpu0_STLB TRANSLATION ACCESS:          0  HIT:          0  MISS:          0
cpu0_STLB PREFETCH  REQUESTED:          0  ISSUED:          0  USEFUL:          0  USELESS:          0
cpu0_STLB AVERAGE MISS LATENCY: 217.534 cycles
cpu0_L1D TOTAL     ACCESS:   20754465  HIT:   19345724  MISS:    1408741
cpu0_L1D LOAD      ACCESS:   14097507  HIT:   13042162  MISS:    1055345
cpu0_L1D RFO       ACCESS:    6656586  HIT:    6303385  MISS:     353201
cpu0_L1D PREFETCH  ACCESS:          0  HIT:          0  MISS:          0
cpu0_L1D WRITEBACK ACCESS:          0  HIT:          0  MISS:          0
cpu0_L1D TRANSLATION ACCESS:        372  HIT:        177  MISS:        195
cpu0_L1D PREFETCH  REQUESTED:          0  ISSUED:          0  USEFUL:          0  USELESS:          0
cpu0_L1D AVERAGE MISS LATENCY: 75.9978 cycles
cpu0_L2C TOTAL     ACCESS:    1810960  HIT:    1197722  MISS:     613238
cpu0_L2C LOAD      ACCESS:    1055328  HIT:     692818  MISS:     362510
cpu0_L2C RFO       ACCESS:     353169  HIT:     102544  MISS:     250625
cpu0_L2C PREFETCH  ACCESS:          0  HIT:          0  MISS:          0
cpu0_L2C WRITEBACK ACCESS:     402268  HIT:     402196  MISS:         72
cpu0_L2C TRANSLATION ACCESS:        195  HIT:        164  MISS:         31
cpu0_L2C PREFETCH  REQUESTED:          0  ISSUED:          0  USEFUL:          0  USELESS:          0
cpu0_L2C AVERAGE MISS LATENCY: 149.177 cycles
LLC TOTAL     ACCESS:     901931  HIT:     765139  MISS:     136792
LLC LOAD      ACCESS:     362507  HIT:     296878  MISS:      65629
LLC RFO       ACCESS:     250602  HIT:     189648  MISS:      60954
LLC PREFETCH  ACCESS:          0  HIT:          0  MISS:          0
LLC WRITEBACK ACCESS:     288791  HIT:     278599  MISS:      10192
LLC TRANSLATION ACCESS:         31  HIT:         14  MISS:         17
LLC PREFETCH  REQUESTED:          0  ISSUED:          0  USEFUL:          0  USELESS:          0
LLC AVERAGE MISS LATENCY: 574.61 cycles
OPTgen accesses: 10424
OPTgen hits: 8551
OPTgen hit rate: 82.0318



DRAM Statistics
 CHANNEL 0
 RQ ROW_BUFFER_HIT:       8759  ROW_BUFFER_MISS:     117220
 DBUS AVG_CONGESTED_CYCLE:    3.97076
 WQ ROW_BUFFER_HIT:       7111  ROW_BUFFER_MISS:      77664  FULL:          0


CPU 0 Branch Prediction Accuracy: 89.4501% MPKI: 18.6246 Average ROB Occupancy at Mispredict: 32.4511
Branch type MPKI
BRANCH_DIRECT_JUMP: 3e-05
BRANCH_INDIRECT: 0
BRANCH_CONDITIONAL: 18.6246
BRANCH_DIRECT_CALL: 0
BRANCH_INDIRECT_CALL: 0
BRANCH_RETURN: 0

