
*** ChampSim Multicore Out-of-Order Simulator ***

Warmup Instructions: 10000000
Simulation Instructions: 100000000
Number of CPUs: 1
Off-chip DRAM Size: 4 GiB Channels: 1 Width: 64-bit Data Rate: 3200 MT/s

VirtualMemory physical capacity: 8588881920 num_ppages: 2096895
VirtualMemory page size: 4096 log2_page_size: 12

CPU 0 runs /datasets/cs240c-wi22-a00-public/data/Assignment2/zeusmp_100B.trace.xz
CPU 0 Bimodal branch predictor
Basic BTB sets: 1024 ways: 8 indirect buffer size: 4096 RAS size: 64
Initialize Hawkeye state
Heartbeat CPU 0 instructions: 10000000 cycles: 2533557 heartbeat IPC: 3.94702 cumulative IPC: 3.94702 (Simulation time: 0 hr 0 min 25 sec) 

Warmup complete CPU 0 instructions: 10000004 cycles: 2533558 (Simulation time: 0 hr 0 min 25 sec) 

Heartbeat CPU 0 instructions: 20000003 cycles: 8005127 heartbeat IPC: 1.82763 cumulative IPC: 1.82763 (Simulation time: 0 hr 1 min 10 sec) 
Heartbeat CPU 0 instructions: 30000000 cycles: 13920628 heartbeat IPC: 1.69047 cumulative IPC: 1.75638 (Simulation time: 0 hr 1 min 59 sec) 
Heartbeat CPU 0 instructions: 40000004 cycles: 19833017 heartbeat IPC: 1.69136 cumulative IPC: 1.73416 (Simulation time: 0 hr 2 min 47 sec) 
Heartbeat CPU 0 instructions: 50000001 cycles: 25717941 heartbeat IPC: 1.69926 cumulative IPC: 1.7253 (Simulation time: 0 hr 3 min 36 sec) 
Heartbeat CPU 0 instructions: 60000004 cycles: 31635916 heartbeat IPC: 1.68977 cumulative IPC: 1.71807 (Simulation time: 0 hr 4 min 24 sec) 
Heartbeat CPU 0 instructions: 70000001 cycles: 37520338 heartbeat IPC: 1.6994 cumulative IPC: 1.71493 (Simulation time: 0 hr 5 min 13 sec) 
Heartbeat CPU 0 instructions: 80000001 cycles: 43436936 heartbeat IPC: 1.69016 cumulative IPC: 1.71135 (Simulation time: 0 hr 6 min 1 sec) 
Heartbeat CPU 0 instructions: 90000000 cycles: 49355188 heartbeat IPC: 1.68969 cumulative IPC: 1.70861 (Simulation time: 0 hr 6 min 47 sec) 
Heartbeat CPU 0 instructions: 100000000 cycles: 55241790 heartbeat IPC: 1.69877 cumulative IPC: 1.70751 (Simulation time: 0 hr 7 min 32 sec) 
Heartbeat CPU 0 instructions: 110000003 cycles: 61161685 heartbeat IPC: 1.68922 cumulative IPC: 1.70567 (Simulation time: 0 hr 8 min 17 sec) 
Finished CPU 0 instructions: 100000004 cycles: 58628128 cumulative IPC: 1.70567 (Simulation time: 0 hr 8 min 17 sec) 

ChampSim completed all CPUs

Region of Interest Statistics

CPU 0 cumulative IPC: 1.70567 instructions: 100000004 cycles: 58628128
cpu0_DTLB TOTAL     ACCESS:   16444412  HIT:   12279981  MISS:    4164431
cpu0_DTLB LOAD      ACCESS:   11965825  HIT:    9308495  MISS:    2657330
cpu0_DTLB RFO       ACCESS:    4478587  HIT:    2971486  MISS:    1507101
cpu0_DTLB PREFETCH  ACCESS:          0  HIT:          0  MISS:          0
cpu0_DTLB WRITEBACK ACCESS:          0  HIT:          0  MISS:          0
cpu0_DTLB TRANSLATION ACCESS:          0  HIT:          0  MISS:          0
cpu0_DTLB PREFETCH  REQUESTED:          0  ISSUED:          0  USEFUL:          0  USELESS:          0
cpu0_DTLB AVERAGE MISS LATENCY: 10.4009 cycles
cpu0_ITLB TOTAL     ACCESS:    2227435  HIT:    2227434  MISS:          1
cpu0_ITLB LOAD      ACCESS:    2227435  HIT:    2227434  MISS:          1
cpu0_ITLB RFO       ACCESS:          0  HIT:          0  MISS:          0
cpu0_ITLB PREFETCH  ACCESS:          0  HIT:          0  MISS:          0
cpu0_ITLB WRITEBACK ACCESS:          0  HIT:          0  MISS:          0
cpu0_ITLB TRANSLATION ACCESS:          0  HIT:          0  MISS:          0
cpu0_ITLB PREFETCH  REQUESTED:          0  ISSUED:          0  USEFUL:          0  USELESS:          0
cpu0_ITLB AVERAGE MISS LATENCY: 249 cycles
cpu0_L1I TOTAL     ACCESS:    3117482  HIT:    3117431  MISS:         51
cpu0_L1I LOAD      ACCESS:    3117482  HIT:    3117431  MISS:         51
cpu0_L1I RFO       ACCESS:          0  HIT:          0  MISS:          0
cpu0_L1I PREFETCH  ACCESS:          0  HIT:          0  MISS:          0
cpu0_L1I WRITEBACK ACCESS:          0  HIT:          0  MISS:          0
cpu0_L1I TRANSLATION ACCESS:          0  HIT:          0  MISS:          0
cpu0_L1I PREFETCH  REQUESTED:          0  ISSUED:          0  USEFUL:          0  USELESS:          0
cpu0_L1I AVERAGE MISS LATENCY: 322.412 cycles
cpu0_STLB TOTAL     ACCESS:    4164432  HIT:    4155993  MISS:       8439
cpu0_STLB LOAD      ACCESS:    2657331  HIT:    2652168  MISS:       5163
cpu0_STLB RFO       ACCESS:    1507101  HIT:    1503825  MISS:       3276
cpu0_STLB PREFETCH  ACCESS:          0  HIT:          0  MISS:          0
cpu0_STLB WRITEBACK ACCESS:          0  HIT:          0  MISS:          0
cpu0_STLB TRANSLATION ACCESS:          0  HIT:          0  MISS:          0
cpu0_STLB PREFETCH  REQUESTED:          0  ISSUED:          0  USEFUL:          0  USELESS:          0
cpu0_STLB AVERAGE MISS LATENCY: 554.734 cycles
cpu0_L1D TOTAL     ACCESS:   19020941  HIT:   13986056  MISS:    5034885
cpu0_L1D LOAD      ACCESS:   12125675  HIT:    8890657  MISS:    3235018
cpu0_L1D RFO       ACCESS:    6886922  HIT:    5094752  MISS:    1792170
cpu0_L1D PREFETCH  ACCESS:          0  HIT:          0  MISS:          0
cpu0_L1D WRITEBACK ACCESS:          0  HIT:          0  MISS:          0
cpu0_L1D TRANSLATION ACCESS:       8344  HIT:        647  MISS:       7697
cpu0_L1D PREFETCH  REQUESTED:          0  ISSUED:          0  USEFUL:          0  USELESS:          0
cpu0_L1D AVERAGE MISS LATENCY: 86.3146 cycles
cpu0_L2C TOTAL     ACCESS:    6855597  HIT:    6267871  MISS:     587726
cpu0_L2C LOAD      ACCESS:    3234791  HIT:    2840623  MISS:     394168
cpu0_L2C RFO       ACCESS:    1790650  HIT:    1597388  MISS:     193262
cpu0_L2C PREFETCH  ACCESS:          0  HIT:          0  MISS:          0
cpu0_L2C WRITEBACK ACCESS:    1822459  HIT:    1822169  MISS:        290
cpu0_L2C TRANSLATION ACCESS:       7697  HIT:       7691  MISS:          6
cpu0_L2C PREFETCH  REQUESTED:          0  ISSUED:          0  USEFUL:          0  USELESS:          0
cpu0_L2C AVERAGE MISS LATENCY: 644.338 cycles
LLC TOTAL     ACCESS:     780777  HIT:     106399  MISS:     674378
LLC LOAD      ACCESS:     394168  HIT:      88749  MISS:     305419
LLC RFO       ACCESS:     193262  HIT:          0  MISS:     193262
LLC PREFETCH  ACCESS:          0  HIT:          0  MISS:          0
LLC WRITEBACK ACCESS:     193341  HIT:      17648  MISS:     175693
LLC TRANSLATION ACCESS:          6  HIT:          2  MISS:          4
LLC PREFETCH  REQUESTED:          0  ISSUED:          0  USEFUL:          0  USELESS:          0
LLC AVERAGE MISS LATENCY: 543.253 cycles
OPTgen accesses: 9772
OPTgen hits: 1426
OPTgen hit rate: 14.5927



DRAM Statistics
 CHANNEL 0
 RQ ROW_BUFFER_HIT:        141  ROW_BUFFER_MISS:     498544
 DBUS AVG_CONGESTED_CYCLE:    3.99924
 WQ ROW_BUFFER_HIT:        427  ROW_BUFFER_MISS:     192496  FULL:          0


CPU 0 Branch Prediction Accuracy: 99.0158% MPKI: 0.52371 Average ROB Occupancy at Mispredict: 235.799
Branch type MPKI
BRANCH_DIRECT_JUMP: 1e-05
BRANCH_INDIRECT: 0
BRANCH_CONDITIONAL: 0.5237
BRANCH_DIRECT_CALL: 0
BRANCH_INDIRECT_CALL: 0
BRANCH_RETURN: 0

