
*** ChampSim Multicore Out-of-Order Simulator ***

Warmup Instructions: 10000000
Simulation Instructions: 100000000
Number of CPUs: 1
Off-chip DRAM Size: 4 GiB Channels: 1 Width: 64-bit Data Rate: 3200 MT/s

VirtualMemory physical capacity: 8588881920 num_ppages: 2096895
VirtualMemory page size: 4096 log2_page_size: 12

CPU 0 runs /datasets/cs240c-wi22-a00-public/data/Assignment2/GemsFDTD_109B.trace.xz
CPU 0 Bimodal branch predictor
Basic BTB sets: 1024 ways: 8 indirect buffer size: 4096 RAS size: 64
Initialize Hawkeye state
Heartbeat CPU 0 instructions: 10000004 cycles: 4294006 heartbeat IPC: 2.32883 cumulative IPC: 2.32883 (Simulation time: 0 hr 1 min 6 sec) 

Warmup complete CPU 0 instructions: 10000004 cycles: 4294006 (Simulation time: 0 hr 1 min 6 sec) 

Heartbeat CPU 0 instructions: 20000000 cycles: 35281571 heartbeat IPC: 0.32271 cumulative IPC: 0.32271 (Simulation time: 0 hr 4 min 48 sec) 
Heartbeat CPU 0 instructions: 30000004 cycles: 56460397 heartbeat IPC: 0.47217 cumulative IPC: 0.383389 (Simulation time: 0 hr 6 min 58 sec) 
Heartbeat CPU 0 instructions: 40000004 cycles: 62648512 heartbeat IPC: 1.616 cumulative IPC: 0.514099 (Simulation time: 0 hr 7 min 49 sec) 
Heartbeat CPU 0 instructions: 50000002 cycles: 83496226 heartbeat IPC: 0.479669 cumulative IPC: 0.505036 (Simulation time: 0 hr 9 min 51 sec) 
Heartbeat CPU 0 instructions: 60000003 cycles: 123779900 heartbeat IPC: 0.24824 cumulative IPC: 0.418459 (Simulation time: 0 hr 13 min 55 sec) 
Heartbeat CPU 0 instructions: 70000001 cycles: 163564147 heartbeat IPC: 0.251356 cumulative IPC: 0.376718 (Simulation time: 0 hr 18 min 19 sec) 
Heartbeat CPU 0 instructions: 80000004 cycles: 203249647 heartbeat IPC: 0.251981 cumulative IPC: 0.351837 (Simulation time: 0 hr 22 min 28 sec) 
Heartbeat CPU 0 instructions: 90000000 cycles: 242931715 heartbeat IPC: 0.252003 cumulative IPC: 0.335236 (Simulation time: 0 hr 26 min 24 sec) 
Heartbeat CPU 0 instructions: 100000000 cycles: 282639704 heartbeat IPC: 0.251838 cumulative IPC: 0.323339 (Simulation time: 0 hr 30 min 22 sec) 
Heartbeat CPU 0 instructions: 110000004 cycles: 322330061 heartbeat IPC: 0.25195 cumulative IPC: 0.31443 (Simulation time: 0 hr 34 min 35 sec) 
Finished CPU 0 instructions: 100000000 cycles: 318036055 cumulative IPC: 0.31443 (Simulation time: 0 hr 34 min 35 sec) 

ChampSim completed all CPUs

Region of Interest Statistics

CPU 0 cumulative IPC: 0.31443 instructions: 100000000 cycles: 318036055
cpu0_DTLB TOTAL     ACCESS:   26444767  HIT:   26245344  MISS:     199423
cpu0_DTLB LOAD      ACCESS:   21013940  HIT:   20816519  MISS:     197421
cpu0_DTLB RFO       ACCESS:    5430827  HIT:    5428825  MISS:       2002
cpu0_DTLB PREFETCH  ACCESS:          0  HIT:          0  MISS:          0
cpu0_DTLB WRITEBACK ACCESS:          0  HIT:          0  MISS:          0
cpu0_DTLB TRANSLATION ACCESS:          0  HIT:          0  MISS:          0
cpu0_DTLB PREFETCH  REQUESTED:          0  ISSUED:          0  USEFUL:          0  USELESS:          0
cpu0_DTLB AVERAGE MISS LATENCY: 426.751 cycles
cpu0_ITLB TOTAL     ACCESS:    2048789  HIT:    2048771  MISS:         18
cpu0_ITLB LOAD      ACCESS:    2048789  HIT:    2048771  MISS:         18
cpu0_ITLB RFO       ACCESS:          0  HIT:          0  MISS:          0
cpu0_ITLB PREFETCH  ACCESS:          0  HIT:          0  MISS:          0
cpu0_ITLB WRITEBACK ACCESS:          0  HIT:          0  MISS:          0
cpu0_ITLB TRANSLATION ACCESS:          0  HIT:          0  MISS:          0
cpu0_ITLB PREFETCH  REQUESTED:          0  ISSUED:          0  USEFUL:          0  USELESS:          0
cpu0_ITLB AVERAGE MISS LATENCY: 256.833 cycles
cpu0_L1I TOTAL     ACCESS:    1722890  HIT:    1722460  MISS:        430
cpu0_L1I LOAD      ACCESS:    1722890  HIT:    1722460  MISS:        430
cpu0_L1I RFO       ACCESS:          0  HIT:          0  MISS:          0
cpu0_L1I PREFETCH  ACCESS:          0  HIT:          0  MISS:          0
cpu0_L1I WRITEBACK ACCESS:          0  HIT:          0  MISS:          0
cpu0_L1I TRANSLATION ACCESS:          0  HIT:          0  MISS:          0
cpu0_L1I PREFETCH  REQUESTED:          0  ISSUED:          0  USEFUL:          0  USELESS:          0
cpu0_L1I AVERAGE MISS LATENCY: 362.456 cycles
cpu0_STLB TOTAL     ACCESS:     199441  HIT:      33980  MISS:     165461
cpu0_STLB LOAD      ACCESS:     197439  HIT:      32672  MISS:     164767
cpu0_STLB RFO       ACCESS:       2002  HIT:       1308  MISS:        694
cpu0_STLB PREFETCH  ACCESS:          0  HIT:          0  MISS:          0
cpu0_STLB WRITEBACK ACCESS:          0  HIT:          0  MISS:          0
cpu0_STLB TRANSLATION ACCESS:          0  HIT:          0  MISS:          0
cpu0_STLB PREFETCH  REQUESTED:          0  ISSUED:          0  USEFUL:          0  USELESS:          0
cpu0_STLB AVERAGE MISS LATENCY: 503.406 cycles
cpu0_L1D TOTAL     ACCESS:   22881666  HIT:   19651334  MISS:    3230332
cpu0_L1D LOAD      ACCESS:   13782366  HIT:   10682329  MISS:    3100037
cpu0_L1D RFO       ACCESS:    9009314  HIT:    8881702  MISS:     127612
cpu0_L1D PREFETCH  ACCESS:          0  HIT:          0  MISS:          0
cpu0_L1D WRITEBACK ACCESS:          0  HIT:          0  MISS:          0
cpu0_L1D TRANSLATION ACCESS:      89986  HIT:      87303  MISS:       2683
cpu0_L1D PREFETCH  REQUESTED:          0  ISSUED:          0  USEFUL:          0  USELESS:          0
cpu0_L1D AVERAGE MISS LATENCY: 717.84 cycles
cpu0_L2C TOTAL     ACCESS:    4595595  HIT:    1423739  MISS:    3171856
cpu0_L2C LOAD      ACCESS:    3100467  HIT:      41422  MISS:    3059045
cpu0_L2C RFO       ACCESS:     127612  HIT:      15094  MISS:     112518
cpu0_L2C PREFETCH  ACCESS:          0  HIT:          0  MISS:          0
cpu0_L2C WRITEBACK ACCESS:    1364833  HIT:    1364736  MISS:         97
cpu0_L2C TRANSLATION ACCESS:       2683  HIT:       2487  MISS:        196
cpu0_L2C PREFETCH  REQUESTED:          0  ISSUED:          0  USEFUL:          0  USELESS:          0
cpu0_L2C AVERAGE MISS LATENCY: 719.904 cycles
LLC TOTAL     ACCESS:    4523073  HIT:    1090353  MISS:    3432720
LLC LOAD      ACCESS:    3059035  HIT:     706965  MISS:    2352070
LLC RFO       ACCESS:     112518  HIT:      95336  MISS:      17182
LLC PREFETCH  ACCESS:          0  HIT:          0  MISS:          0
LLC WRITEBACK ACCESS:    1351324  HIT:     287955  MISS:    1063369
LLC TRANSLATION ACCESS:        196  HIT:         97  MISS:         99
LLC PREFETCH  REQUESTED:          0  ISSUED:          0  USEFUL:          0  USELESS:          0
LLC AVERAGE MISS LATENCY: 645.777 cycles
OPTgen accesses: 53474
OPTgen hits: 12705
OPTgen hit rate: 23.7592



DRAM Statistics
 CHANNEL 0
 RQ ROW_BUFFER_HIT:      43605  ROW_BUFFER_MISS:    2325710
 DBUS AVG_CONGESTED_CYCLE:    3.99642
 WQ ROW_BUFFER_HIT:      21186  ROW_BUFFER_MISS:    1239828  FULL:      65984


CPU 0 Branch Prediction Accuracy: 98.929% MPKI: 0.55515 Average ROB Occupancy at Mispredict: 266.239
Branch type MPKI
BRANCH_DIRECT_JUMP: 0.00045
BRANCH_INDIRECT: 1e-05
BRANCH_CONDITIONAL: 0.5534
BRANCH_DIRECT_CALL: 0.00065
BRANCH_INDIRECT_CALL: 0
BRANCH_RETURN: 0.00064

