
*** ChampSim Multicore Out-of-Order Simulator ***

Warmup Instructions: 10000000
Simulation Instructions: 100000000
Number of CPUs: 1
Off-chip DRAM Size: 4 GiB Channels: 1 Width: 64-bit Data Rate: 3200 MT/s

VirtualMemory physical capacity: 8588881920 num_ppages: 2096895
VirtualMemory page size: 4096 log2_page_size: 12

CPU 0 runs /datasets/cs240c-wi22-a00-public/data/Assignment2/mcf_158B.trace.xz
CPU 0 Bimodal branch predictor
Basic BTB sets: 1024 ways: 8 indirect buffer size: 4096 RAS size: 64
Initialize Hawkeye state
Heartbeat CPU 0 instructions: 10000002 cycles: 3864087 heartbeat IPC: 2.58793 cumulative IPC: 2.58793 (Simulation time: 0 hr 0 min 54 sec) 

Warmup complete CPU 0 instructions: 10000002 cycles: 3864087 (Simulation time: 0 hr 0 min 54 sec) 

Heartbeat CPU 0 instructions: 20000000 cycles: 139625235 heartbeat IPC: 0.0736588 cumulative IPC: 0.0736588 (Simulation time: 0 hr 4 min 35 sec) 
Heartbeat CPU 0 instructions: 30000000 cycles: 271533056 heartbeat IPC: 0.0758105 cumulative IPC: 0.0747192 (Simulation time: 0 hr 8 min 9 sec) 
Heartbeat CPU 0 instructions: 40000001 cycles: 401381337 heartbeat IPC: 0.077013 cumulative IPC: 0.0754684 (Simulation time: 0 hr 11 min 40 sec) 
Heartbeat CPU 0 instructions: 50000000 cycles: 521200913 heartbeat IPC: 0.0834588 cumulative IPC: 0.0773191 (Simulation time: 0 hr 14 min 57 sec) 
Heartbeat CPU 0 instructions: 60000000 cycles: 637837826 heartbeat IPC: 0.0857361 cumulative IPC: 0.0788676 (Simulation time: 0 hr 18 min 10 sec) 
Heartbeat CPU 0 instructions: 70000002 cycles: 751198157 heartbeat IPC: 0.0882143 cumulative IPC: 0.0802854 (Simulation time: 0 hr 21 min 19 sec) 
Heartbeat CPU 0 instructions: 80000000 cycles: 867852140 heartbeat IPC: 0.0857236 cumulative IPC: 0.0810196 (Simulation time: 0 hr 24 min 36 sec) 
Heartbeat CPU 0 instructions: 90000003 cycles: 987671733 heartbeat IPC: 0.0834588 cumulative IPC: 0.0813167 (Simulation time: 0 hr 27 min 59 sec) 
Heartbeat CPU 0 instructions: 100000003 cycles: 1108552980 heartbeat IPC: 0.0827258 cumulative IPC: 0.0814709 (Simulation time: 0 hr 31 min 20 sec) 
Heartbeat CPU 0 instructions: 110000001 cycles: 1229544324 heartbeat IPC: 0.0826505 cumulative IPC: 0.0815873 (Simulation time: 0 hr 34 min 42 sec) 
Finished CPU 0 instructions: 100000002 cycles: 1225680238 cumulative IPC: 0.0815873 (Simulation time: 0 hr 34 min 42 sec) 

ChampSim completed all CPUs

Region of Interest Statistics

CPU 0 cumulative IPC: 0.0815873 instructions: 100000002 cycles: 1225680238
cpu0_DTLB TOTAL     ACCESS:   23555994  HIT:   12734024  MISS:   10821970
cpu0_DTLB LOAD      ACCESS:   20435540  HIT:    9980755  MISS:   10454785
cpu0_DTLB RFO       ACCESS:    3120454  HIT:    2753269  MISS:     367185
cpu0_DTLB PREFETCH  ACCESS:          0  HIT:          0  MISS:          0
cpu0_DTLB WRITEBACK ACCESS:          0  HIT:          0  MISS:          0
cpu0_DTLB TRANSLATION ACCESS:          0  HIT:          0  MISS:          0
cpu0_DTLB PREFETCH  REQUESTED:          0  ISSUED:          0  USEFUL:          0  USELESS:          0
cpu0_DTLB AVERAGE MISS LATENCY: 11.9694 cycles
cpu0_ITLB TOTAL     ACCESS:   12955028  HIT:   12955028  MISS:          0
cpu0_ITLB LOAD      ACCESS:   12955028  HIT:   12955028  MISS:          0
cpu0_ITLB RFO       ACCESS:          0  HIT:          0  MISS:          0
cpu0_ITLB PREFETCH  ACCESS:          0  HIT:          0  MISS:          0
cpu0_ITLB WRITEBACK ACCESS:          0  HIT:          0  MISS:          0
cpu0_ITLB TRANSLATION ACCESS:          0  HIT:          0  MISS:          0
cpu0_ITLB PREFETCH  REQUESTED:          0  ISSUED:          0  USEFUL:          0  USELESS:          0
cpu0_ITLB AVERAGE MISS LATENCY: -nan cycles
cpu0_L1I TOTAL     ACCESS:         19  HIT:         14  MISS:          5
cpu0_L1I LOAD      ACCESS:         19  HIT:         14  MISS:          5
cpu0_L1I RFO       ACCESS:          0  HIT:          0  MISS:          0
cpu0_L1I PREFETCH  ACCESS:          0  HIT:          0  MISS:          0
cpu0_L1I WRITEBACK ACCESS:          0  HIT:          0  MISS:          0
cpu0_L1I TRANSLATION ACCESS:          0  HIT:          0  MISS:          0
cpu0_L1I PREFETCH  REQUESTED:          0  ISSUED:          0  USEFUL:          0  USELESS:          0
cpu0_L1I AVERAGE MISS LATENCY: 194.4 cycles
cpu0_STLB TOTAL     ACCESS:   10821970  HIT:    9710715  MISS:    1111255
cpu0_STLB LOAD      ACCESS:   10454785  HIT:    9350296  MISS:    1104489
cpu0_STLB RFO       ACCESS:     367185  HIT:     360419  MISS:       6766
cpu0_STLB PREFETCH  ACCESS:          0  HIT:          0  MISS:          0
cpu0_STLB WRITEBACK ACCESS:          0  HIT:          0  MISS:          0
cpu0_STLB TRANSLATION ACCESS:          0  HIT:          0  MISS:          0
cpu0_STLB PREFETCH  REQUESTED:          0  ISSUED:          0  USEFUL:          0  USELESS:          0
cpu0_STLB AVERAGE MISS LATENCY: 28.8795 cycles
cpu0_L1D TOTAL     ACCESS:   27618142  HIT:   14074233  MISS:   13543909
cpu0_L1D LOAD      ACCESS:   22271409  HIT:    9101520  MISS:   13169889
cpu0_L1D RFO       ACCESS:    4239350  HIT:    4034340  MISS:     205010
cpu0_L1D PREFETCH  ACCESS:          0  HIT:          0  MISS:          0
cpu0_L1D WRITEBACK ACCESS:          0  HIT:          0  MISS:          0
cpu0_L1D TRANSLATION ACCESS:    1107383  HIT:     938373  MISS:     169010
cpu0_L1D PREFETCH  REQUESTED:          0  ISSUED:          0  USEFUL:          0  USELESS:          0
cpu0_L1D AVERAGE MISS LATENCY: 163.202 cycles
cpu0_L2C TOTAL     ACCESS:   15650989  HIT:    6137815  MISS:    9513174
cpu0_L2C LOAD      ACCESS:   13169521  HIT:    3841550  MISS:    9327971
cpu0_L2C RFO       ACCESS:     205004  HIT:      71772  MISS:     133232
cpu0_L2C PREFETCH  ACCESS:          0  HIT:          0  MISS:          0
cpu0_L2C WRITEBACK ACCESS:    2107454  HIT:    2107101  MISS:        353
cpu0_L2C TRANSLATION ACCESS:     169010  HIT:     117392  MISS:      51618
cpu0_L2C PREFETCH  REQUESTED:          0  ISSUED:          0  USEFUL:          0  USELESS:          0
cpu0_L2C AVERAGE MISS LATENCY: 216.617 cycles
LLC TOTAL     ACCESS:   11017535  HIT:    4299783  MISS:    6717752
LLC LOAD      ACCESS:    9327969  HIT:    3408975  MISS:    5918994
LLC RFO       ACCESS:     133232  HIT:      65339  MISS:      67893
LLC PREFETCH  ACCESS:          0  HIT:          0  MISS:          0
LLC WRITEBACK ACCESS:    1504716  HIT:     818054  MISS:     686662
LLC TRANSLATION ACCESS:      51618  HIT:       7415  MISS:      44203
LLC PREFETCH  REQUESTED:          0  ISSUED:          0  USEFUL:          0  USELESS:          0
LLC AVERAGE MISS LATENCY: 277.019 cycles
OPTgen accesses: 172557
OPTgen hits: 73233
OPTgen hit rate: 42.4399



DRAM Statistics
 CHANNEL 0
 RQ ROW_BUFFER_HIT:      18684  ROW_BUFFER_MISS:    6011456
 DBUS AVG_CONGESTED_CYCLE:    3.96581
 WQ ROW_BUFFER_HIT:      42519  ROW_BUFFER_MISS:    1013519  FULL:          0


CPU 0 Branch Prediction Accuracy: 85.5988% MPKI: 40.2398 Average ROB Occupancy at Mispredict: 17.1462
Branch type MPKI
BRANCH_DIRECT_JUMP: 4e-05
BRANCH_INDIRECT: 0
BRANCH_CONDITIONAL: 40.2397
BRANCH_DIRECT_CALL: 0
BRANCH_INDIRECT_CALL: 0
BRANCH_RETURN: 0

