
*** ChampSim Multicore Out-of-Order Simulator ***

Warmup Instructions: 10000000
Simulation Instructions: 100000000
Number of CPUs: 1
Off-chip DRAM Size: 4 GiB Channels: 1 Width: 64-bit Data Rate: 3200 MT/s

VirtualMemory physical capacity: 8588881920 num_ppages: 2096895
VirtualMemory page size: 4096 log2_page_size: 12

CPU 0 runs /datasets/cs240c-wi22-a00-public/data/Assignment2/libquantum_1210B.trace.xz
CPU 0 Bimodal branch predictor
Basic BTB sets: 1024 ways: 8 indirect buffer size: 4096 RAS size: 64
Initialize Hawkeye state
Heartbeat CPU 0 instructions: 10000001 cycles: 2500056 heartbeat IPC: 3.99991 cumulative IPC: 3.99991 (Simulation time: 0 hr 0 min 27 sec) 

Warmup complete CPU 0 instructions: 10000001 cycles: 2500056 (Simulation time: 0 hr 0 min 27 sec) 

Heartbeat CPU 0 instructions: 20000000 cycles: 43690405 heartbeat IPC: 0.242775 cumulative IPC: 0.242775 (Simulation time: 0 hr 2 min 6 sec) 
Heartbeat CPU 0 instructions: 30000003 cycles: 81584880 heartbeat IPC: 0.263891 cumulative IPC: 0.252893 (Simulation time: 0 hr 3 min 41 sec) 
Heartbeat CPU 0 instructions: 40000002 cycles: 87177750 heartbeat IPC: 1.78799 cumulative IPC: 0.354285 (Simulation time: 0 hr 4 min 34 sec) 
Heartbeat CPU 0 instructions: 50000000 cycles: 104863201 heartbeat IPC: 0.565436 cumulative IPC: 0.390766 (Simulation time: 0 hr 5 min 40 sec) 
Heartbeat CPU 0 instructions: 60000001 cycles: 148676851 heartbeat IPC: 0.228239 cumulative IPC: 0.342052 (Simulation time: 0 hr 7 min 20 sec) 
Heartbeat CPU 0 instructions: 70000004 cycles: 187434254 heartbeat IPC: 0.258015 cumulative IPC: 0.32444 (Simulation time: 0 hr 8 min 53 sec) 
Heartbeat CPU 0 instructions: 80000001 cycles: 223655476 heartbeat IPC: 0.276081 cumulative IPC: 0.316519 (Simulation time: 0 hr 10 min 22 sec) 
Heartbeat CPU 0 instructions: 90000001 cycles: 265940884 heartbeat IPC: 0.236488 cumulative IPC: 0.303674 (Simulation time: 0 hr 12 min 3 sec) 
Heartbeat CPU 0 instructions: 100000002 cycles: 303056812 heartbeat IPC: 0.269426 cumulative IPC: 0.299444 (Simulation time: 0 hr 13 min 39 sec) 
Heartbeat CPU 0 instructions: 110000001 cycles: 307976818 heartbeat IPC: 2.03252 cumulative IPC: 0.327357 (Simulation time: 0 hr 14 min 31 sec) 
Finished CPU 0 instructions: 100000000 cycles: 305476762 cumulative IPC: 0.327357 (Simulation time: 0 hr 14 min 31 sec) 

ChampSim completed all CPUs

Region of Interest Statistics

CPU 0 cumulative IPC: 0.327357 instructions: 100000000 cycles: 305476762
cpu0_DTLB TOTAL     ACCESS:   11066835  HIT:   11019832  MISS:      47003
cpu0_DTLB LOAD      ACCESS:    9212372  HIT:    9165375  MISS:      46997
cpu0_DTLB RFO       ACCESS:    1854463  HIT:    1854457  MISS:          6
cpu0_DTLB PREFETCH  ACCESS:          0  HIT:          0  MISS:          0
cpu0_DTLB WRITEBACK ACCESS:          0  HIT:          0  MISS:          0
cpu0_DTLB TRANSLATION ACCESS:          0  HIT:          0  MISS:          0
cpu0_DTLB PREFETCH  REQUESTED:          0  ISSUED:          0  USEFUL:          0  USELESS:          0
cpu0_DTLB AVERAGE MISS LATENCY: 34.5216 cycles
cpu0_ITLB TOTAL     ACCESS:    4369714  HIT:    4369710  MISS:          4
cpu0_ITLB LOAD      ACCESS:    4369714  HIT:    4369710  MISS:          4
cpu0_ITLB RFO       ACCESS:          0  HIT:          0  MISS:          0
cpu0_ITLB PREFETCH  ACCESS:          0  HIT:          0  MISS:          0
cpu0_ITLB WRITEBACK ACCESS:          0  HIT:          0  MISS:          0
cpu0_ITLB TRANSLATION ACCESS:          0  HIT:          0  MISS:          0
cpu0_ITLB PREFETCH  REQUESTED:          0  ISSUED:          0  USEFUL:          0  USELESS:          0
cpu0_ITLB AVERAGE MISS LATENCY: 267.25 cycles
cpu0_L1I TOTAL     ACCESS:         38  HIT:         18  MISS:         20
cpu0_L1I LOAD      ACCESS:         38  HIT:         18  MISS:         20
cpu0_L1I RFO       ACCESS:          0  HIT:          0  MISS:          0
cpu0_L1I PREFETCH  ACCESS:          0  HIT:          0  MISS:          0
cpu0_L1I WRITEBACK ACCESS:          0  HIT:          0  MISS:          0
cpu0_L1I TRANSLATION ACCESS:          0  HIT:          0  MISS:          0
cpu0_L1I PREFETCH  REQUESTED:          0  ISSUED:          0  USEFUL:          0  USELESS:          0
cpu0_L1I AVERAGE MISS LATENCY: 216.2 cycles
cpu0_STLB TOTAL     ACCESS:      47007  HIT:          0  MISS:      47007
cpu0_STLB LOAD      ACCESS:      47001  HIT:          0  MISS:      47001
cpu0_STLB RFO       ACCESS:          6  HIT:          0  MISS:          6
cpu0_STLB PREFETCH  ACCESS:          0  HIT:          0  MISS:          0
cpu0_STLB WRITEBACK ACCESS:          0  HIT:          0  MISS:          0
cpu0_STLB TRANSLATION ACCESS:          0  HIT:          0  MISS:          0
cpu0_STLB PREFETCH  REQUESTED:          0  ISSUED:          0  USEFUL:          0  USELESS:          0
cpu0_STLB AVERAGE MISS LATENCY: 25.5415 cycles
cpu0_L1D TOTAL     ACCESS:    7108511  HIT:    4101707  MISS:    3006804
cpu0_L1D LOAD      ACCESS:    4891104  HIT:    1884358  MISS:    3006746
cpu0_L1D RFO       ACCESS:    2170399  HIT:    2170377  MISS:         22
cpu0_L1D PREFETCH  ACCESS:          0  HIT:          0  MISS:          0
cpu0_L1D WRITEBACK ACCESS:          0  HIT:          0  MISS:          0
cpu0_L1D TRANSLATION ACCESS:      47008  HIT:      46972  MISS:         36
cpu0_L1D PREFETCH  REQUESTED:          0  ISSUED:          0  USEFUL:          0  USELESS:          0
cpu0_L1D AVERAGE MISS LATENCY: 213.117 cycles
cpu0_L2C TOTAL     ACCESS:    4045647  HIT:    1038823  MISS:    3006824
cpu0_L2C LOAD      ACCESS:    3006766  HIT:          0  MISS:    3006766
cpu0_L2C RFO       ACCESS:         22  HIT:          0  MISS:         22
cpu0_L2C PREFETCH  ACCESS:          0  HIT:          0  MISS:          0
cpu0_L2C WRITEBACK ACCESS:    1038823  HIT:    1038823  MISS:          0
cpu0_L2C TRANSLATION ACCESS:         36  HIT:          0  MISS:         36
cpu0_L2C PREFETCH  REQUESTED:          0  ISSUED:          0  USEFUL:          0  USELESS:          0
cpu0_L2C AVERAGE MISS LATENCY: 202.114 cycles
LLC TOTAL     ACCESS:    4049066  HIT:     216536  MISS:    3832530
LLC LOAD      ACCESS:    3006766  HIT:     138446  MISS:    2868320
LLC RFO       ACCESS:         22  HIT:         10  MISS:         12
LLC PREFETCH  ACCESS:          0  HIT:          0  MISS:          0
LLC WRITEBACK ACCESS:    1042242  HIT:      78072  MISS:     964170
LLC TRANSLATION ACCESS:         36  HIT:          8  MISS:         28
LLC PREFETCH  REQUESTED:          0  ISSUED:          0  USEFUL:          0  USELESS:          0
LLC AVERAGE MISS LATENCY: 142.086 cycles
OPTgen accesses: 51093
OPTgen hits: 512
OPTgen hit rate: 1.00209



DRAM Statistics
 CHANNEL 0
 RQ ROW_BUFFER_HIT:    1423724  ROW_BUFFER_MISS:    1444637
 DBUS AVG_CONGESTED_CYCLE:    3.75552
 WQ ROW_BUFFER_HIT:     382556  ROW_BUFFER_MISS:     620769  FULL:      27621


CPU 0 Branch Prediction Accuracy: 89.9607% MPKI: 24.1485 Average ROB Occupancy at Mispredict: 2.8331
Branch type MPKI
BRANCH_DIRECT_JUMP: 4e-05
BRANCH_INDIRECT: 0
BRANCH_CONDITIONAL: 24.1482
BRANCH_DIRECT_CALL: 0.00011
BRANCH_INDIRECT_CALL: 0
BRANCH_RETURN: 0.00012

