
*** ChampSim Multicore Out-of-Order Simulator ***

Warmup Instructions: 10000000
Simulation Instructions: 100000000
Number of CPUs: 1
Off-chip DRAM Size: 4 GiB Channels: 1 Width: 64-bit Data Rate: 3200 MT/s

VirtualMemory physical capacity: 8588881920 num_ppages: 2096895
VirtualMemory page size: 4096 log2_page_size: 12

CPU 0 runs /datasets/cs240c-wi22-a00-public/data/Assignment2/wrf_1212B.trace.xz
CPU 0 Bimodal branch predictor
Basic BTB sets: 1024 ways: 8 indirect buffer size: 4096 RAS size: 64
Initialize Hawkeye state
Heartbeat CPU 0 instructions: 10000004 cycles: 2552145 heartbeat IPC: 3.91827 cumulative IPC: 3.91827 (Simulation time: 0 hr 0 min 30 sec) 

Warmup complete CPU 0 instructions: 10000004 cycles: 2552145 (Simulation time: 0 hr 0 min 30 sec) 

Heartbeat CPU 0 instructions: 20000000 cycles: 9018758 heartbeat IPC: 1.5464 cumulative IPC: 1.5464 (Simulation time: 0 hr 1 min 21 sec) 
Heartbeat CPU 0 instructions: 30000002 cycles: 15456784 heartbeat IPC: 1.55327 cumulative IPC: 1.54983 (Simulation time: 0 hr 2 min 10 sec) 
Heartbeat CPU 0 instructions: 40000002 cycles: 21900187 heartbeat IPC: 1.55197 cumulative IPC: 1.55054 (Simulation time: 0 hr 2 min 58 sec) 
Heartbeat CPU 0 instructions: 50000003 cycles: 28354566 heartbeat IPC: 1.54934 cumulative IPC: 1.55024 (Simulation time: 0 hr 3 min 47 sec) 
Heartbeat CPU 0 instructions: 60000000 cycles: 34834939 heartbeat IPC: 1.54312 cumulative IPC: 1.54881 (Simulation time: 0 hr 4 min 37 sec) 
Heartbeat CPU 0 instructions: 70000002 cycles: 41479241 heartbeat IPC: 1.50505 cumulative IPC: 1.54134 (Simulation time: 0 hr 5 min 27 sec) 
Heartbeat CPU 0 instructions: 80000001 cycles: 48084023 heartbeat IPC: 1.51405 cumulative IPC: 1.53738 (Simulation time: 0 hr 6 min 16 sec) 
Heartbeat CPU 0 instructions: 90000000 cycles: 54580872 heartbeat IPC: 1.53921 cumulative IPC: 1.53761 (Simulation time: 0 hr 7 min 7 sec) 
Heartbeat CPU 0 instructions: 100000003 cycles: 61019596 heartbeat IPC: 1.5531 cumulative IPC: 1.53932 (Simulation time: 0 hr 7 min 49 sec) 
Heartbeat CPU 0 instructions: 110000001 cycles: 67413976 heartbeat IPC: 1.56387 cumulative IPC: 1.54174 (Simulation time: 0 hr 8 min 29 sec) 
Finished CPU 0 instructions: 100000002 cycles: 64861832 cumulative IPC: 1.54174 (Simulation time: 0 hr 8 min 29 sec) 

ChampSim completed all CPUs

Region of Interest Statistics

CPU 0 cumulative IPC: 1.54174 instructions: 100000002 cycles: 64861832
cpu0_DTLB TOTAL     ACCESS:   18869627  HIT:   18629066  MISS:     240561
cpu0_DTLB LOAD      ACCESS:   12070834  HIT:   11914313  MISS:     156521
cpu0_DTLB RFO       ACCESS:    6798793  HIT:    6714753  MISS:      84040
cpu0_DTLB PREFETCH  ACCESS:          0  HIT:          0  MISS:          0
cpu0_DTLB WRITEBACK ACCESS:          0  HIT:          0  MISS:          0
cpu0_DTLB TRANSLATION ACCESS:          0  HIT:          0  MISS:          0
cpu0_DTLB PREFETCH  REQUESTED:          0  ISSUED:          0  USEFUL:          0  USELESS:          0
cpu0_DTLB AVERAGE MISS LATENCY: 14.781 cycles
cpu0_ITLB TOTAL     ACCESS:    5651250  HIT:    5651250  MISS:          0
cpu0_ITLB LOAD      ACCESS:    5651250  HIT:    5651250  MISS:          0
cpu0_ITLB RFO       ACCESS:          0  HIT:          0  MISS:          0
cpu0_ITLB PREFETCH  ACCESS:          0  HIT:          0  MISS:          0
cpu0_ITLB WRITEBACK ACCESS:          0  HIT:          0  MISS:          0
cpu0_ITLB TRANSLATION ACCESS:          0  HIT:          0  MISS:          0
cpu0_ITLB PREFETCH  REQUESTED:          0  ISSUED:          0  USEFUL:          0  USELESS:          0
cpu0_ITLB AVERAGE MISS LATENCY: -nan cycles
cpu0_L1I TOTAL     ACCESS:    9013446  HIT:    8969637  MISS:      43809
cpu0_L1I LOAD      ACCESS:    9013446  HIT:    8969637  MISS:      43809
cpu0_L1I RFO       ACCESS:          0  HIT:          0  MISS:          0
cpu0_L1I PREFETCH  ACCESS:          0  HIT:          0  MISS:          0
cpu0_L1I WRITEBACK ACCESS:          0  HIT:          0  MISS:          0
cpu0_L1I TRANSLATION ACCESS:          0  HIT:          0  MISS:          0
cpu0_L1I PREFETCH  REQUESTED:          0  ISSUED:          0  USEFUL:          0  USELESS:          0
cpu0_L1I AVERAGE MISS LATENCY: 11.7828 cycles
cpu0_STLB TOTAL     ACCESS:     240561  HIT:     239298  MISS:       1263
cpu0_STLB LOAD      ACCESS:     156521  HIT:     155272  MISS:       1249
cpu0_STLB RFO       ACCESS:      84040  HIT:      84026  MISS:         14
cpu0_STLB PREFETCH  ACCESS:          0  HIT:          0  MISS:          0
cpu0_STLB WRITEBACK ACCESS:          0  HIT:          0  MISS:          0
cpu0_STLB TRANSLATION ACCESS:          0  HIT:          0  MISS:          0
cpu0_STLB PREFETCH  REQUESTED:          0  ISSUED:          0  USEFUL:          0  USELESS:          0
cpu0_STLB AVERAGE MISS LATENCY: 1081.91 cycles
cpu0_L1D TOTAL     ACCESS:   29575766  HIT:   29172163  MISS:     403603
cpu0_L1D LOAD      ACCESS:   14322457  HIT:   13997812  MISS:     324645
cpu0_L1D RFO       ACCESS:   15252328  HIT:   15173596  MISS:      78732
cpu0_L1D PREFETCH  ACCESS:          0  HIT:          0  MISS:          0
cpu0_L1D WRITEBACK ACCESS:          0  HIT:          0  MISS:          0
cpu0_L1D TRANSLATION ACCESS:        981  HIT:        755  MISS:        226
cpu0_L1D PREFETCH  REQUESTED:          0  ISSUED:          0  USEFUL:          0  USELESS:          0
cpu0_L1D AVERAGE MISS LATENCY: 117.663 cycles
cpu0_L2C TOTAL     ACCESS:     589989  HIT:     511523  MISS:      78466
cpu0_L2C LOAD      ACCESS:     368454  HIT:     291149  MISS:      77305
cpu0_L2C RFO       ACCESS:      77260  HIT:      76345  MISS:        915
cpu0_L2C PREFETCH  ACCESS:          0  HIT:          0  MISS:          0
cpu0_L2C WRITEBACK ACCESS:     144049  HIT:     143821  MISS:        228
cpu0_L2C TRANSLATION ACCESS:        226  HIT:        208  MISS:         18
cpu0_L2C PREFETCH  REQUESTED:          0  ISSUED:          0  USEFUL:          0  USELESS:          0
cpu0_L2C AVERAGE MISS LATENCY: 548.521 cycles
LLC TOTAL     ACCESS:     115089  HIT:      19182  MISS:      95907
LLC LOAD      ACCESS:      77305  HIT:        283  MISS:      77022
LLC RFO       ACCESS:        915  HIT:         10  MISS:        905
LLC PREFETCH  ACCESS:          0  HIT:          0  MISS:          0
LLC WRITEBACK ACCESS:      36851  HIT:      18881  MISS:      17970
LLC TRANSLATION ACCESS:         18  HIT:          8  MISS:         10
LLC PREFETCH  REQUESTED:          0  ISSUED:          0  USEFUL:          0  USELESS:          0
LLC AVERAGE MISS LATENCY: 431.64 cycles
OPTgen accesses: 1386
OPTgen hits: 19
OPTgen hit rate: 1.37085



DRAM Statistics
 CHANNEL 0
 RQ ROW_BUFFER_HIT:       2526  ROW_BUFFER_MISS:      75411
 DBUS AVG_CONGESTED_CYCLE:    3.96223
 WQ ROW_BUFFER_HIT:        346  ROW_BUFFER_MISS:      22594  FULL:          0


CPU 0 Branch Prediction Accuracy: 97.2223% MPKI: 4.86341 Average ROB Occupancy at Mispredict: 61.384
Branch type MPKI
BRANCH_DIRECT_JUMP: 0.00019
BRANCH_INDIRECT: 0
BRANCH_CONDITIONAL: 4.86284
BRANCH_DIRECT_CALL: 0.00021
BRANCH_INDIRECT_CALL: 0
BRANCH_RETURN: 0.00017

