
*** ChampSim Multicore Out-of-Order Simulator ***

Warmup Instructions: 10000000
Simulation Instructions: 100000000
Number of CPUs: 1
Off-chip DRAM Size: 4 GiB Channels: 1 Width: 64-bit Data Rate: 3200 MT/s

VirtualMemory physical capacity: 8588881920 num_ppages: 2096895
VirtualMemory page size: 4096 log2_page_size: 12

CPU 0 runs /datasets/cs240c-wi22-a00-public/data/Assignment2/cactusADM_1039B.trace.xz
CPU 0 Bimodal branch predictor
Basic BTB sets: 1024 ways: 8 indirect buffer size: 4096 RAS size: 64
Initialize Hawkeye state
Heartbeat CPU 0 instructions: 10000004 cycles: 3647107 heartbeat IPC: 2.7419 cumulative IPC: 2.7419 (Simulation time: 0 hr 1 min 0 sec) 

Warmup complete CPU 0 instructions: 10000004 cycles: 3647107 (Simulation time: 0 hr 1 min 0 sec) 

Heartbeat CPU 0 instructions: 20000004 cycles: 13411357 heartbeat IPC: 1.02414 cumulative IPC: 1.02414 (Simulation time: 0 hr 2 min 52 sec) 
Heartbeat CPU 0 instructions: 30000000 cycles: 22842722 heartbeat IPC: 1.06029 cumulative IPC: 1.0419 (Simulation time: 0 hr 4 min 42 sec) 
Heartbeat CPU 0 instructions: 40000000 cycles: 31930983 heartbeat IPC: 1.10032 cumulative IPC: 1.06067 (Simulation time: 0 hr 6 min 31 sec) 
Heartbeat CPU 0 instructions: 50000004 cycles: 40786356 heartbeat IPC: 1.12926 cumulative IPC: 1.07703 (Simulation time: 0 hr 8 min 16 sec) 
Heartbeat CPU 0 instructions: 60000002 cycles: 47326078 heartbeat IPC: 1.52912 cumulative IPC: 1.14472 (Simulation time: 0 hr 9 min 47 sec) 
Heartbeat CPU 0 instructions: 70000004 cycles: 56015064 heartbeat IPC: 1.15088 cumulative IPC: 1.14574 (Simulation time: 0 hr 11 min 30 sec) 
Heartbeat CPU 0 instructions: 80000004 cycles: 64802182 heartbeat IPC: 1.13803 cumulative IPC: 1.14463 (Simulation time: 0 hr 13 min 15 sec) 
Heartbeat CPU 0 instructions: 90000004 cycles: 73592627 heartbeat IPC: 1.1376 cumulative IPC: 1.14375 (Simulation time: 0 hr 14 min 59 sec) 
Heartbeat CPU 0 instructions: 100000000 cycles: 80090032 heartbeat IPC: 1.53908 cumulative IPC: 1.17735 (Simulation time: 0 hr 16 min 31 sec) 
Heartbeat CPU 0 instructions: 110000001 cycles: 88788516 heartbeat IPC: 1.14963 cumulative IPC: 1.17452 (Simulation time: 0 hr 18 min 15 sec) 
Finished CPU 0 instructions: 100000002 cycles: 85141410 cumulative IPC: 1.17452 (Simulation time: 0 hr 18 min 15 sec) 

ChampSim completed all CPUs

Region of Interest Statistics

CPU 0 cumulative IPC: 1.17452 instructions: 100000002 cycles: 85141410
cpu0_DTLB TOTAL     ACCESS:   22959886  HIT:   20910384  MISS:    2049502
cpu0_DTLB LOAD      ACCESS:   19048896  HIT:   17615959  MISS:    1432937
cpu0_DTLB RFO       ACCESS:    3910990  HIT:    3294425  MISS:     616565
cpu0_DTLB PREFETCH  ACCESS:          0  HIT:          0  MISS:          0
cpu0_DTLB WRITEBACK ACCESS:          0  HIT:          0  MISS:          0
cpu0_DTLB TRANSLATION ACCESS:          0  HIT:          0  MISS:          0
cpu0_DTLB PREFETCH  REQUESTED:          0  ISSUED:          0  USEFUL:          0  USELESS:          0
cpu0_DTLB AVERAGE MISS LATENCY: 15.6426 cycles
cpu0_ITLB TOTAL     ACCESS:    1451303  HIT:    1451303  MISS:          0
cpu0_ITLB LOAD      ACCESS:    1451303  HIT:    1451303  MISS:          0
cpu0_ITLB RFO       ACCESS:          0  HIT:          0  MISS:          0
cpu0_ITLB PREFETCH  ACCESS:          0  HIT:          0  MISS:          0
cpu0_ITLB WRITEBACK ACCESS:          0  HIT:          0  MISS:          0
cpu0_ITLB TRANSLATION ACCESS:          0  HIT:          0  MISS:          0
cpu0_ITLB PREFETCH  REQUESTED:          0  ISSUED:          0  USEFUL:          0  USELESS:          0
cpu0_ITLB AVERAGE MISS LATENCY: -nan cycles
cpu0_L1I TOTAL     ACCESS:    8121094  HIT:    8121091  MISS:          3
cpu0_L1I LOAD      ACCESS:    8121094  HIT:    8121091  MISS:          3
cpu0_L1I RFO       ACCESS:          0  HIT:          0  MISS:          0
cpu0_L1I PREFETCH  ACCESS:          0  HIT:          0  MISS:          0
cpu0_L1I WRITEBACK ACCESS:          0  HIT:          0  MISS:          0
cpu0_L1I TRANSLATION ACCESS:          0  HIT:          0  MISS:          0
cpu0_L1I PREFETCH  REQUESTED:          0  ISSUED:          0  USEFUL:          0  USELESS:          0
cpu0_L1I AVERAGE MISS LATENCY: 613 cycles
cpu0_STLB TOTAL     ACCESS:    2049502  HIT:    1126186  MISS:     923316
cpu0_STLB LOAD      ACCESS:    1432937  HIT:     832790  MISS:     600147
cpu0_STLB RFO       ACCESS:     616565  HIT:     293396  MISS:     323169
cpu0_STLB PREFETCH  ACCESS:          0  HIT:          0  MISS:          0
cpu0_STLB WRITEBACK ACCESS:          0  HIT:          0  MISS:          0
cpu0_STLB TRANSLATION ACCESS:          0  HIT:          0  MISS:          0
cpu0_STLB PREFETCH  REQUESTED:          0  ISSUED:          0  USEFUL:          0  USELESS:          0
cpu0_STLB AVERAGE MISS LATENCY: 14.5882 cycles
cpu0_L1D TOTAL     ACCESS:   37691450  HIT:   36367717  MISS:    1323733
cpu0_L1D LOAD      ACCESS:   25771054  HIT:   24718647  MISS:    1052407
cpu0_L1D RFO       ACCESS:   10997947  HIT:   10732575  MISS:     265372
cpu0_L1D PREFETCH  ACCESS:          0  HIT:          0  MISS:          0
cpu0_L1D WRITEBACK ACCESS:          0  HIT:          0  MISS:          0
cpu0_L1D TRANSLATION ACCESS:     922449  HIT:     916495  MISS:       5954
cpu0_L1D PREFETCH  REQUESTED:          0  ISSUED:          0  USEFUL:          0  USELESS:          0
cpu0_L1D AVERAGE MISS LATENCY: 278.632 cycles
cpu0_L2C TOTAL     ACCESS:    1593005  HIT:     694181  MISS:     898824
cpu0_L2C LOAD      ACCESS:    1052408  HIT:     419484  MISS:     632924
cpu0_L2C RFO       ACCESS:     265372  HIT:          1  MISS:     265371
cpu0_L2C PREFETCH  ACCESS:          0  HIT:          0  MISS:          0
cpu0_L2C WRITEBACK ACCESS:     269271  HIT:     269059  MISS:        212
cpu0_L2C TRANSLATION ACCESS:       5954  HIT:       5637  MISS:        317
cpu0_L2C PREFETCH  REQUESTED:          0  ISSUED:          0  USEFUL:          0  USELESS:          0
cpu0_L2C AVERAGE MISS LATENCY: 394.131 cycles
LLC TOTAL     ACCESS:    1165775  HIT:     318576  MISS:     847199
LLC LOAD      ACCESS:     632924  HIT:     120915  MISS:     512009
LLC RFO       ACCESS:     265371  HIT:      88762  MISS:     176609
LLC PREFETCH  ACCESS:          0  HIT:          0  MISS:          0
LLC WRITEBACK ACCESS:     267163  HIT:     108827  MISS:     158336
LLC TRANSLATION ACCESS:        317  HIT:         72  MISS:        245
LLC PREFETCH  REQUESTED:          0  ISSUED:          0  USEFUL:          0  USELESS:          0
LLC AVERAGE MISS LATENCY: 395.872 cycles
OPTgen accesses: 15021
OPTgen hits: 1323
OPTgen hit rate: 8.80767



DRAM Statistics
 CHANNEL 0
 RQ ROW_BUFFER_HIT:       6214  ROW_BUFFER_MISS:     682649
 DBUS AVG_CONGESTED_CYCLE:    3.97546
 WQ ROW_BUFFER_HIT:      28137  ROW_BUFFER_MISS:     223521  FULL:        254


CPU 0 Branch Prediction Accuracy: 97.7479% MPKI: 0.04701 Average ROB Occupancy at Mispredict: 283.781
Branch type MPKI
BRANCH_DIRECT_JUMP: 0
BRANCH_INDIRECT: 0
BRANCH_CONDITIONAL: 0.04701
BRANCH_DIRECT_CALL: 0
BRANCH_INDIRECT_CALL: 0
BRANCH_RETURN: 0

