
*** ChampSim Multicore Out-of-Order Simulator ***

Warmup Instructions: 10000000
Simulation Instructions: 100000000
Number of CPUs: 1
Off-chip DRAM Size: 4 GiB Channels: 1 Width: 64-bit Data Rate: 3200 MT/s

VirtualMemory physical capacity: 8588881920 num_ppages: 2096895
VirtualMemory page size: 4096 log2_page_size: 12

CPU 0 runs /datasets/cs240c-wi22-a00-public/data/Assignment2/mcf_158B.trace.xz
CPU 0 Bimodal branch predictor
Basic BTB sets: 1024 ways: 8 indirect buffer size: 4096 RAS size: 64
Initialize Hawkeye state
Heartbeat CPU 0 instructions: 10000002 cycles: 3864085 heartbeat IPC: 2.58794 cumulative IPC: 2.58794 (Simulation time: 0 hr 0 min 58 sec) 

Warmup complete CPU 0 instructions: 10000002 cycles: 3864085 (Simulation time: 0 hr 0 min 58 sec) 

Heartbeat CPU 0 instructions: 20000000 cycles: 141123512 heartbeat IPC: 0.0728547 cumulative IPC: 0.0728547 (Simulation time: 0 hr 4 min 53 sec) 
Heartbeat CPU 0 instructions: 30000000 cycles: 272345541 heartbeat IPC: 0.0762067 cumulative IPC: 0.074493 (Simulation time: 0 hr 8 min 33 sec) 
Heartbeat CPU 0 instructions: 40000001 cycles: 402485618 heartbeat IPC: 0.0768403 cumulative IPC: 0.0752594 (Simulation time: 0 hr 12 min 11 sec) 
Heartbeat CPU 0 instructions: 50000000 cycles: 526142760 heartbeat IPC: 0.0808688 cumulative IPC: 0.0765875 (Simulation time: 0 hr 15 min 39 sec) 
Heartbeat CPU 0 instructions: 60000000 cycles: 642669888 heartbeat IPC: 0.0858169 cumulative IPC: 0.078271 (Simulation time: 0 hr 18 min 57 sec) 
Heartbeat CPU 0 instructions: 70000002 cycles: 760799524 heartbeat IPC: 0.0846528 cumulative IPC: 0.079267 (Simulation time: 0 hr 22 min 16 sec) 
Heartbeat CPU 0 instructions: 80000000 cycles: 878884961 heartbeat IPC: 0.0846844 cumulative IPC: 0.0799981 (Simulation time: 0 hr 25 min 38 sec) 
Heartbeat CPU 0 instructions: 90000003 cycles: 1000625638 heartbeat IPC: 0.0821418 cumulative IPC: 0.0802599 (Simulation time: 0 hr 29 min 5 sec) 
Heartbeat CPU 0 instructions: 100000003 cycles: 1124847645 heartbeat IPC: 0.080501 cumulative IPC: 0.0802866 (Simulation time: 0 hr 32 min 38 sec) 
Heartbeat CPU 0 instructions: 110000001 cycles: 1248464879 heartbeat IPC: 0.0808949 cumulative IPC: 0.080347 (Simulation time: 0 hr 36 min 6 sec) 
Finished CPU 0 instructions: 100000002 cycles: 1244600795 cumulative IPC: 0.080347 (Simulation time: 0 hr 36 min 6 sec) 

ChampSim completed all CPUs

Region of Interest Statistics

CPU 0 cumulative IPC: 0.080347 instructions: 100000002 cycles: 1244600795
cpu0_DTLB TOTAL     ACCESS:   23558646  HIT:   12736755  MISS:   10821891
cpu0_DTLB LOAD      ACCESS:   20439820  HIT:    9985096  MISS:   10454724
cpu0_DTLB RFO       ACCESS:    3118826  HIT:    2751659  MISS:     367167
cpu0_DTLB PREFETCH  ACCESS:          0  HIT:          0  MISS:          0
cpu0_DTLB WRITEBACK ACCESS:          0  HIT:          0  MISS:          0
cpu0_DTLB TRANSLATION ACCESS:          0  HIT:          0  MISS:          0
cpu0_DTLB PREFETCH  REQUESTED:          0  ISSUED:          0  USEFUL:          0  USELESS:          0
cpu0_DTLB AVERAGE MISS LATENCY: 12.0132 cycles
cpu0_ITLB TOTAL     ACCESS:   12954667  HIT:   12954667  MISS:          0
cpu0_ITLB LOAD      ACCESS:   12954667  HIT:   12954667  MISS:          0
cpu0_ITLB RFO       ACCESS:          0  HIT:          0  MISS:          0
cpu0_ITLB PREFETCH  ACCESS:          0  HIT:          0  MISS:          0
cpu0_ITLB WRITEBACK ACCESS:          0  HIT:          0  MISS:          0
cpu0_ITLB TRANSLATION ACCESS:          0  HIT:          0  MISS:          0
cpu0_ITLB PREFETCH  REQUESTED:          0  ISSUED:          0  USEFUL:          0  USELESS:          0
cpu0_ITLB AVERAGE MISS LATENCY: -nan cycles
cpu0_L1I TOTAL     ACCESS:         19  HIT:         14  MISS:          5
cpu0_L1I LOAD      ACCESS:         19  HIT:         14  MISS:          5
cpu0_L1I RFO       ACCESS:          0  HIT:          0  MISS:          0
cpu0_L1I PREFETCH  ACCESS:          0  HIT:          0  MISS:          0
cpu0_L1I WRITEBACK ACCESS:          0  HIT:          0  MISS:          0
cpu0_L1I TRANSLATION ACCESS:          0  HIT:          0  MISS:          0
cpu0_L1I PREFETCH  REQUESTED:          0  ISSUED:          0  USEFUL:          0  USELESS:          0
cpu0_L1I AVERAGE MISS LATENCY: 194.2 cycles
cpu0_STLB TOTAL     ACCESS:   10821891  HIT:    9710627  MISS:    1111264
cpu0_STLB LOAD      ACCESS:   10454724  HIT:    9350225  MISS:    1104499
cpu0_STLB RFO       ACCESS:     367167  HIT:     360402  MISS:       6765
cpu0_STLB PREFETCH  ACCESS:          0  HIT:          0  MISS:          0
cpu0_STLB WRITEBACK ACCESS:          0  HIT:          0  MISS:          0
cpu0_STLB TRANSLATION ACCESS:          0  HIT:          0  MISS:          0
cpu0_STLB PREFETCH  REQUESTED:          0  ISSUED:          0  USEFUL:          0  USELESS:          0
cpu0_STLB AVERAGE MISS LATENCY: 29.3054 cycles
cpu0_L1D TOTAL     ACCESS:   27622584  HIT:   14078696  MISS:   13543888
cpu0_L1D LOAD      ACCESS:   22275766  HIT:    9105890  MISS:   13169876
cpu0_L1D RFO       ACCESS:    4239381  HIT:    4034375  MISS:     205006
cpu0_L1D PREFETCH  ACCESS:          0  HIT:          0  MISS:          0
cpu0_L1D WRITEBACK ACCESS:          0  HIT:          0  MISS:          0
cpu0_L1D TRANSLATION ACCESS:    1107437  HIT:     938431  MISS:     169006
cpu0_L1D PREFETCH  REQUESTED:          0  ISSUED:          0  USEFUL:          0  USELESS:          0
cpu0_L1D AVERAGE MISS LATENCY: 166.569 cycles
cpu0_L2C TOTAL     ACCESS:   15650365  HIT:    6137204  MISS:    9513161
cpu0_L2C LOAD      ACCESS:   13169507  HIT:    3841569  MISS:    9327938
cpu0_L2C RFO       ACCESS:     205001  HIT:      71742  MISS:     133259
cpu0_L2C PREFETCH  ACCESS:          0  HIT:          0  MISS:          0
cpu0_L2C WRITEBACK ACCESS:    2106851  HIT:    2106499  MISS:        352
cpu0_L2C TRANSLATION ACCESS:     169006  HIT:     117394  MISS:      51612
cpu0_L2C PREFETCH  REQUESTED:          0  ISSUED:          0  USEFUL:          0  USELESS:          0
cpu0_L2C AVERAGE MISS LATENCY: 221.411 cycles
LLC TOTAL     ACCESS:   11016947  HIT:    4188355  MISS:    6828592
LLC LOAD      ACCESS:    9327936  HIT:    3285677  MISS:    6042259
LLC RFO       ACCESS:     133259  HIT:      59954  MISS:      73305
LLC PREFETCH  ACCESS:          0  HIT:          0  MISS:          0
LLC WRITEBACK ACCESS:    1504140  HIT:     836588  MISS:     667552
LLC TRANSLATION ACCESS:      51612  HIT:       6136  MISS:      45476
LLC PREFETCH  REQUESTED:          0  ISSUED:          0  USEFUL:          0  USELESS:          0
LLC AVERAGE MISS LATENCY: 279.2 cycles
OPTgen accesses: 172525
OPTgen hits: 49680
OPTgen hit rate: 28.7958



DRAM Statistics
 CHANNEL 0
 RQ ROW_BUFFER_HIT:      18993  ROW_BUFFER_MISS:    6141002
 DBUS AVG_CONGESTED_CYCLE:    3.96793
 WQ ROW_BUFFER_HIT:      42136  ROW_BUFFER_MISS:    1099021  FULL:          0


CPU 0 Branch Prediction Accuracy: 85.5988% MPKI: 40.2398 Average ROB Occupancy at Mispredict: 17.0945
Branch type MPKI
BRANCH_DIRECT_JUMP: 4e-05
BRANCH_INDIRECT: 0
BRANCH_CONDITIONAL: 40.2397
BRANCH_DIRECT_CALL: 0
BRANCH_INDIRECT_CALL: 0
BRANCH_RETURN: 0

