
*** ChampSim Multicore Out-of-Order Simulator ***

Warmup Instructions: 10000000
Simulation Instructions: 100000000
Number of CPUs: 1
Off-chip DRAM Size: 4 GiB Channels: 1 Width: 64-bit Data Rate: 3200 MT/s

VirtualMemory physical capacity: 8588881920 num_ppages: 2096895
VirtualMemory page size: 4096 log2_page_size: 12

CPU 0 runs /datasets/cs240c-wi22-a00-public/data/Assignment2/omnetpp_4B.trace.xz
CPU 0 Bimodal branch predictor
Basic BTB sets: 1024 ways: 8 indirect buffer size: 4096 RAS size: 64
Initialize Hawkeye state
Heartbeat CPU 0 instructions: 10000002 cycles: 2526523 heartbeat IPC: 3.95801 cumulative IPC: 3.95801 (Simulation time: 0 hr 0 min 24 sec) 

Warmup complete CPU 0 instructions: 10000002 cycles: 2526523 (Simulation time: 0 hr 0 min 24 sec) 

Heartbeat CPU 0 instructions: 20000000 cycles: 9569931 heartbeat IPC: 1.41977 cumulative IPC: 1.41977 (Simulation time: 0 hr 0 min 59 sec) 
Heartbeat CPU 0 instructions: 30000001 cycles: 17397577 heartbeat IPC: 1.27752 cumulative IPC: 1.34489 (Simulation time: 0 hr 1 min 40 sec) 
Heartbeat CPU 0 instructions: 40000002 cycles: 25101728 heartbeat IPC: 1.298 cumulative IPC: 1.32889 (Simulation time: 0 hr 2 min 21 sec) 
Heartbeat CPU 0 instructions: 50000000 cycles: 32556179 heartbeat IPC: 1.34148 cumulative IPC: 1.33202 (Simulation time: 0 hr 3 min 1 sec) 
Heartbeat CPU 0 instructions: 60000000 cycles: 40448155 heartbeat IPC: 1.26711 cumulative IPC: 1.31851 (Simulation time: 0 hr 3 min 44 sec) 
Heartbeat CPU 0 instructions: 70000000 cycles: 47883778 heartbeat IPC: 1.34488 cumulative IPC: 1.32283 (Simulation time: 0 hr 4 min 22 sec) 
Heartbeat CPU 0 instructions: 80000000 cycles: 55545556 heartbeat IPC: 1.30518 cumulative IPC: 1.32028 (Simulation time: 0 hr 5 min 4 sec) 
Heartbeat CPU 0 instructions: 90000000 cycles: 63709969 heartbeat IPC: 1.22483 cumulative IPC: 1.30754 (Simulation time: 0 hr 5 min 51 sec) 
Heartbeat CPU 0 instructions: 100000001 cycles: 70908301 heartbeat IPC: 1.38921 cumulative IPC: 1.31614 (Simulation time: 0 hr 6 min 28 sec) 
Heartbeat CPU 0 instructions: 110000002 cycles: 78891683 heartbeat IPC: 1.2526 cumulative IPC: 1.3095 (Simulation time: 0 hr 7 min 12 sec) 
Finished CPU 0 instructions: 100000000 cycles: 76365160 cumulative IPC: 1.3095 (Simulation time: 0 hr 7 min 12 sec) 

ChampSim completed all CPUs

Region of Interest Statistics

CPU 0 cumulative IPC: 1.3095 instructions: 100000000 cycles: 76365160
cpu0_DTLB TOTAL     ACCESS:   11766036  HIT:   10334136  MISS:    1431900
cpu0_DTLB LOAD      ACCESS:    9179878  HIT:    7749540  MISS:    1430338
cpu0_DTLB RFO       ACCESS:    2586158  HIT:    2584596  MISS:       1562
cpu0_DTLB PREFETCH  ACCESS:          0  HIT:          0  MISS:          0
cpu0_DTLB WRITEBACK ACCESS:          0  HIT:          0  MISS:          0
cpu0_DTLB TRANSLATION ACCESS:          0  HIT:          0  MISS:          0
cpu0_DTLB PREFETCH  REQUESTED:          0  ISSUED:          0  USEFUL:          0  USELESS:          0
cpu0_DTLB AVERAGE MISS LATENCY: 17.6866 cycles
cpu0_ITLB TOTAL     ACCESS:    7987543  HIT:    7963376  MISS:      24167
cpu0_ITLB LOAD      ACCESS:    7987543  HIT:    7963376  MISS:      24167
cpu0_ITLB RFO       ACCESS:          0  HIT:          0  MISS:          0
cpu0_ITLB PREFETCH  ACCESS:          0  HIT:          0  MISS:          0
cpu0_ITLB WRITEBACK ACCESS:          0  HIT:          0  MISS:          0
cpu0_ITLB TRANSLATION ACCESS:          0  HIT:          0  MISS:          0
cpu0_ITLB PREFETCH  REQUESTED:          0  ISSUED:          0  USEFUL:          0  USELESS:          0
cpu0_ITLB AVERAGE MISS LATENCY: 10.8573 cycles
cpu0_L1I TOTAL     ACCESS:    1939513  HIT:    1876671  MISS:      62842
cpu0_L1I LOAD      ACCESS:    1939513  HIT:    1876671  MISS:      62842
cpu0_L1I RFO       ACCESS:          0  HIT:          0  MISS:          0
cpu0_L1I PREFETCH  ACCESS:          0  HIT:          0  MISS:          0
cpu0_L1I WRITEBACK ACCESS:          0  HIT:          0  MISS:          0
cpu0_L1I TRANSLATION ACCESS:          0  HIT:          0  MISS:          0
cpu0_L1I PREFETCH  REQUESTED:          0  ISSUED:          0  USEFUL:          0  USELESS:          0
cpu0_L1I AVERAGE MISS LATENCY: 49.2311 cycles
cpu0_STLB TOTAL     ACCESS:    1456067  HIT:      23518  MISS:    1432549
cpu0_STLB LOAD      ACCESS:    1454505  HIT:      22773  MISS:    1431732
cpu0_STLB RFO       ACCESS:       1562  HIT:        745  MISS:        817
cpu0_STLB PREFETCH  ACCESS:          0  HIT:          0  MISS:          0
cpu0_STLB WRITEBACK ACCESS:          0  HIT:          0  MISS:          0
cpu0_STLB TRANSLATION ACCESS:          0  HIT:          0  MISS:          0
cpu0_STLB PREFETCH  REQUESTED:          0  ISSUED:          0  USEFUL:          0  USELESS:          0
cpu0_STLB AVERAGE MISS LATENCY: 8.29388 cycles
cpu0_L1D TOTAL     ACCESS:   12767336  HIT:   10277433  MISS:    2489903
cpu0_L1D LOAD      ACCESS:    7423401  HIT:    4972193  MISS:    2451208
cpu0_L1D RFO       ACCESS:    4650597  HIT:    4612891  MISS:      37706
cpu0_L1D PREFETCH  ACCESS:          0  HIT:          0  MISS:          0
cpu0_L1D WRITEBACK ACCESS:          0  HIT:          0  MISS:          0
cpu0_L1D TRANSLATION ACCESS:     693338  HIT:     692349  MISS:        989
cpu0_L1D PREFETCH  REQUESTED:          0  ISSUED:          0  USEFUL:          0  USELESS:          0
cpu0_L1D AVERAGE MISS LATENCY: 93.8795 cycles
cpu0_L2C TOTAL     ACCESS:    2633693  HIT:     114314  MISS:    2519379
cpu0_L2C LOAD      ACCESS:    2514049  HIT:      32381  MISS:    2481668
cpu0_L2C RFO       ACCESS:      37706  HIT:        794  MISS:      36912
cpu0_L2C PREFETCH  ACCESS:          0  HIT:          0  MISS:          0
cpu0_L2C WRITEBACK ACCESS:      80949  HIT:      80949  MISS:          0
cpu0_L2C TRANSLATION ACCESS:        989  HIT:        190  MISS:        799
cpu0_L2C PREFETCH  REQUESTED:          0  ISSUED:          0  USEFUL:          0  USELESS:          0
cpu0_L2C AVERAGE MISS LATENCY: 82.3222 cycles
LLC TOTAL     ACCESS:    2598920  HIT:    2079648  MISS:     519272
LLC LOAD      ACCESS:    2481667  HIT:    1988505  MISS:     493162
LLC RFO       ACCESS:      36912  HIT:      16923  MISS:      19989
LLC PREFETCH  ACCESS:          0  HIT:          0  MISS:          0
LLC WRITEBACK ACCESS:      79542  HIT:      73622  MISS:       5920
LLC TRANSLATION ACCESS:        799  HIT:        598  MISS:        201
LLC PREFETCH  REQUESTED:          0  ISSUED:          0  USEFUL:          0  USELESS:          0
LLC AVERAGE MISS LATENCY: 297.457 cycles
OPTgen accesses: 44262
OPTgen hits: 39171
OPTgen hit rate: 88.498



DRAM Statistics
 CHANNEL 0
 RQ ROW_BUFFER_HIT:      24173  ROW_BUFFER_MISS:     485595
 DBUS AVG_CONGESTED_CYCLE:    3.94864
 WQ ROW_BUFFER_HIT:       6382  ROW_BUFFER_MISS:      46460  FULL:          0


CPU 0 Branch Prediction Accuracy: 97.4293% MPKI: 8.26178 Average ROB Occupancy at Mispredict: 57.0642
Branch type MPKI
BRANCH_DIRECT_JUMP: 0.00037
BRANCH_INDIRECT: 0.12485
BRANCH_CONDITIONAL: 8.10493
BRANCH_DIRECT_CALL: 0.00326
BRANCH_INDIRECT_CALL: 0.00558
BRANCH_RETURN: 0.02279

