
*** ChampSim Multicore Out-of-Order Simulator ***

Warmup Instructions: 10000000
Simulation Instructions: 100000000
Number of CPUs: 1
Off-chip DRAM Size: 4 GiB Channels: 1 Width: 64-bit Data Rate: 3200 MT/s

VirtualMemory physical capacity: 8588881920 num_ppages: 2096895
VirtualMemory page size: 4096 log2_page_size: 12

CPU 0 runs /datasets/cs240c-wi22-a00-public/data/Assignment2/omnetpp_340B.trace.xz
CPU 0 Bimodal branch predictor
Basic BTB sets: 1024 ways: 8 indirect buffer size: 4096 RAS size: 64
Initialize Hawkeye state
Heartbeat CPU 0 instructions: 10000002 cycles: 2500207 heartbeat IPC: 3.99967 cumulative IPC: 3.99967 (Simulation time: 0 hr 0 min 40 sec) 

Warmup complete CPU 0 instructions: 10000002 cycles: 2500207 (Simulation time: 0 hr 0 min 40 sec) 

Heartbeat CPU 0 instructions: 20000000 cycles: 27785431 heartbeat IPC: 0.395488 cumulative IPC: 0.395488 (Simulation time: 0 hr 2 min 7 sec) 
Heartbeat CPU 0 instructions: 30000002 cycles: 53124205 heartbeat IPC: 0.394652 cumulative IPC: 0.39507 (Simulation time: 0 hr 3 min 34 sec) 
Heartbeat CPU 0 instructions: 40000000 cycles: 77948013 heartbeat IPC: 0.402839 cumulative IPC: 0.397626 (Simulation time: 0 hr 5 min 3 sec) 
Heartbeat CPU 0 instructions: 50000002 cycles: 102988616 heartbeat IPC: 0.399351 cumulative IPC: 0.398056 (Simulation time: 0 hr 6 min 30 sec) 
Heartbeat CPU 0 instructions: 60000001 cycles: 128554997 heartbeat IPC: 0.391139 cumulative IPC: 0.396653 (Simulation time: 0 hr 8 min 6 sec) 
Heartbeat CPU 0 instructions: 70000003 cycles: 154214148 heartbeat IPC: 0.389725 cumulative IPC: 0.395481 (Simulation time: 0 hr 9 min 30 sec) 
Heartbeat CPU 0 instructions: 80000003 cycles: 180665989 heartbeat IPC: 0.378046 cumulative IPC: 0.392893 (Simulation time: 0 hr 11 min 5 sec) 
Heartbeat CPU 0 instructions: 90000000 cycles: 206903640 heartbeat IPC: 0.381132 cumulative IPC: 0.391383 (Simulation time: 0 hr 12 min 32 sec) 
Heartbeat CPU 0 instructions: 100000002 cycles: 233511147 heartbeat IPC: 0.375834 cumulative IPC: 0.389592 (Simulation time: 0 hr 14 min 8 sec) 
Heartbeat CPU 0 instructions: 110000000 cycles: 258722675 heartbeat IPC: 0.396644 cumulative IPC: 0.390286 (Simulation time: 0 hr 15 min 37 sec) 
Finished CPU 0 instructions: 100000000 cycles: 256222470 cumulative IPC: 0.390286 (Simulation time: 0 hr 15 min 37 sec) 

ChampSim completed all CPUs

Region of Interest Statistics

CPU 0 cumulative IPC: 0.390286 instructions: 100000000 cycles: 256222470
cpu0_DTLB TOTAL     ACCESS:   23835748  HIT:   21938578  MISS:    1897170
cpu0_DTLB LOAD      ACCESS:   13868438  HIT:   12287199  MISS:    1581239
cpu0_DTLB RFO       ACCESS:    9967310  HIT:    9651379  MISS:     315931
cpu0_DTLB PREFETCH  ACCESS:          0  HIT:          0  MISS:          0
cpu0_DTLB WRITEBACK ACCESS:          0  HIT:          0  MISS:          0
cpu0_DTLB TRANSLATION ACCESS:          0  HIT:          0  MISS:          0
cpu0_DTLB PREFETCH  REQUESTED:          0  ISSUED:          0  USEFUL:          0  USELESS:          0
cpu0_DTLB AVERAGE MISS LATENCY: 13.1593 cycles
cpu0_ITLB TOTAL     ACCESS:   11128629  HIT:   11093262  MISS:      35367
cpu0_ITLB LOAD      ACCESS:   11128629  HIT:   11093262  MISS:      35367
cpu0_ITLB RFO       ACCESS:          0  HIT:          0  MISS:          0
cpu0_ITLB PREFETCH  ACCESS:          0  HIT:          0  MISS:          0
cpu0_ITLB WRITEBACK ACCESS:          0  HIT:          0  MISS:          0
cpu0_ITLB TRANSLATION ACCESS:          0  HIT:          0  MISS:          0
cpu0_ITLB PREFETCH  REQUESTED:          0  ISSUED:          0  USEFUL:          0  USELESS:          0
cpu0_ITLB AVERAGE MISS LATENCY: 9.29403 cycles
cpu0_L1I TOTAL     ACCESS:    8347271  HIT:    8340923  MISS:       6348
cpu0_L1I LOAD      ACCESS:    8347271  HIT:    8340923  MISS:       6348
cpu0_L1I RFO       ACCESS:          0  HIT:          0  MISS:          0
cpu0_L1I PREFETCH  ACCESS:          0  HIT:          0  MISS:          0
cpu0_L1I WRITEBACK ACCESS:          0  HIT:          0  MISS:          0
cpu0_L1I TRANSLATION ACCESS:          0  HIT:          0  MISS:          0
cpu0_L1I PREFETCH  REQUESTED:          0  ISSUED:          0  USEFUL:          0  USELESS:          0
cpu0_L1I AVERAGE MISS LATENCY: 55.6276 cycles
cpu0_STLB TOTAL     ACCESS:    1932537  HIT:    1457343  MISS:     475194
cpu0_STLB LOAD      ACCESS:    1616606  HIT:    1262715  MISS:     353891
cpu0_STLB RFO       ACCESS:     315931  HIT:     194628  MISS:     121303
cpu0_STLB PREFETCH  ACCESS:          0  HIT:          0  MISS:          0
cpu0_STLB WRITEBACK ACCESS:          0  HIT:          0  MISS:          0
cpu0_STLB TRANSLATION ACCESS:          0  HIT:          0  MISS:          0
cpu0_STLB PREFETCH  REQUESTED:          0  ISSUED:          0  USEFUL:          0  USELESS:          0
cpu0_STLB AVERAGE MISS LATENCY: 16.1569 cycles
cpu0_L1D TOTAL     ACCESS:   31446372  HIT:   28948473  MISS:    2497899
cpu0_L1D LOAD      ACCESS:   15706674  HIT:   13523804  MISS:    2182870
cpu0_L1D RFO       ACCESS:   15299298  HIT:   14988773  MISS:     310525
cpu0_L1D PREFETCH  ACCESS:          0  HIT:          0  MISS:          0
cpu0_L1D WRITEBACK ACCESS:          0  HIT:          0  MISS:          0
cpu0_L1D TRANSLATION ACCESS:     440400  HIT:     435896  MISS:       4504
cpu0_L1D PREFETCH  REQUESTED:          0  ISSUED:          0  USEFUL:          0  USELESS:          0
cpu0_L1D AVERAGE MISS LATENCY: 144.24 cycles
cpu0_L2C TOTAL     ACCESS:    3581318  HIT:    1431322  MISS:    2149996
cpu0_L2C LOAD      ACCESS:    2189179  HIT:     330894  MISS:    1858285
cpu0_L2C RFO       ACCESS:     310525  HIT:      22187  MISS:     288338
cpu0_L2C PREFETCH  ACCESS:          0  HIT:          0  MISS:          0
cpu0_L2C WRITEBACK ACCESS:    1077110  HIT:    1074836  MISS:       2274
cpu0_L2C TRANSLATION ACCESS:       4504  HIT:       3405  MISS:       1099
cpu0_L2C PREFETCH  REQUESTED:          0  ISSUED:          0  USEFUL:          0  USELESS:          0
cpu0_L2C AVERAGE MISS LATENCY: 154.773 cycles
LLC TOTAL     ACCESS:    3079041  HIT:    1050109  MISS:    2028932
LLC LOAD      ACCESS:    1858284  HIT:     423430  MISS:    1434854
LLC RFO       ACCESS:     288338  HIT:      73392  MISS:     214946
LLC PREFETCH  ACCESS:          0  HIT:          0  MISS:          0
LLC WRITEBACK ACCESS:     931320  HIT:     552597  MISS:     378723
LLC TRANSLATION ACCESS:       1099  HIT:        690  MISS:        409
LLC PREFETCH  REQUESTED:          0  ISSUED:          0  USEFUL:          0  USELESS:          0
LLC AVERAGE MISS LATENCY: 141.779 cycles
OPTgen accesses: 36913
OPTgen hits: 14722
OPTgen hit rate: 39.883



DRAM Statistics
 CHANNEL 0
 RQ ROW_BUFFER_HIT:      90918  ROW_BUFFER_MISS:    1559184
 DBUS AVG_CONGESTED_CYCLE:    3.92346
 WQ ROW_BUFFER_HIT:     170228  ROW_BUFFER_MISS:     533289  FULL:          0


CPU 0 Branch Prediction Accuracy: 94.4212% MPKI: 13.4017 Average ROB Occupancy at Mispredict: 52.1533
Branch type MPKI
BRANCH_DIRECT_JUMP: 0.00017
BRANCH_INDIRECT: 0.04543
BRANCH_CONDITIONAL: 13.2857
BRANCH_DIRECT_CALL: 8e-05
BRANCH_INDIRECT_CALL: 0.04734
BRANCH_RETURN: 0.02301

