
*** ChampSim Multicore Out-of-Order Simulator ***

Warmup Instructions: 10000000
Simulation Instructions: 100000000
Number of CPUs: 1
Off-chip DRAM Size: 4 GiB Channels: 1 Width: 64-bit Data Rate: 3200 MT/s

VirtualMemory physical capacity: 8588881920 num_ppages: 2096895
VirtualMemory page size: 4096 log2_page_size: 12

CPU 0 runs /datasets/cs240c-wi22-a00-public/data/Assignment2/leslie3d_94B.trace.xz
CPU 0 Bimodal branch predictor
Basic BTB sets: 1024 ways: 8 indirect buffer size: 4096 RAS size: 64
Initialize Hawkeye state
Heartbeat CPU 0 instructions: 10000002 cycles: 4308730 heartbeat IPC: 2.32087 cumulative IPC: 2.32087 (Simulation time: 0 hr 1 min 15 sec) 

Warmup complete CPU 0 instructions: 10000002 cycles: 4308730 (Simulation time: 0 hr 1 min 15 sec) 

Heartbeat CPU 0 instructions: 20000001 cycles: 25281752 heartbeat IPC: 0.476803 cumulative IPC: 0.476803 (Simulation time: 0 hr 3 min 43 sec) 
Heartbeat CPU 0 instructions: 30000001 cycles: 76020800 heartbeat IPC: 0.197087 cumulative IPC: 0.278893 (Simulation time: 0 hr 8 min 41 sec) 
Heartbeat CPU 0 instructions: 40000001 cycles: 87069203 heartbeat IPC: 0.905108 cumulative IPC: 0.362492 (Simulation time: 0 hr 10 min 32 sec) 
Heartbeat CPU 0 instructions: 50000002 cycles: 97380091 heartbeat IPC: 0.969849 cumulative IPC: 0.429778 (Simulation time: 0 hr 12 min 19 sec) 
Heartbeat CPU 0 instructions: 60000003 cycles: 107602563 heartbeat IPC: 0.978237 cumulative IPC: 0.484056 (Simulation time: 0 hr 14 min 8 sec) 
Heartbeat CPU 0 instructions: 70000001 cycles: 117893335 heartbeat IPC: 0.971744 cumulative IPC: 0.528241 (Simulation time: 0 hr 15 min 56 sec) 
Heartbeat CPU 0 instructions: 80000001 cycles: 131478937 heartbeat IPC: 0.736073 cumulative IPC: 0.550443 (Simulation time: 0 hr 18 min 4 sec) 
Heartbeat CPU 0 instructions: 90000004 cycles: 165142276 heartbeat IPC: 0.297059 cumulative IPC: 0.497409 (Simulation time: 0 hr 22 min 0 sec) 
Heartbeat CPU 0 instructions: 100000000 cycles: 221304524 heartbeat IPC: 0.178055 cumulative IPC: 0.414755 (Simulation time: 0 hr 28 min 22 sec) 
Heartbeat CPU 0 instructions: 110000004 cycles: 237578053 heartbeat IPC: 0.614495 cumulative IPC: 0.428689 (Simulation time: 0 hr 30 min 21 sec) 
Finished CPU 0 instructions: 100000002 cycles: 233269323 cumulative IPC: 0.428689 (Simulation time: 0 hr 30 min 21 sec) 

ChampSim completed all CPUs

Region of Interest Statistics

CPU 0 cumulative IPC: 0.428689 instructions: 100000002 cycles: 233269323
cpu0_DTLB TOTAL     ACCESS:   26710233  HIT:   26597577  MISS:     112656
cpu0_DTLB LOAD      ACCESS:   21448048  HIT:   21352296  MISS:      95752
cpu0_DTLB RFO       ACCESS:    5262185  HIT:    5245281  MISS:      16904
cpu0_DTLB PREFETCH  ACCESS:          0  HIT:          0  MISS:          0
cpu0_DTLB WRITEBACK ACCESS:          0  HIT:          0  MISS:          0
cpu0_DTLB TRANSLATION ACCESS:          0  HIT:          0  MISS:          0
cpu0_DTLB PREFETCH  REQUESTED:          0  ISSUED:          0  USEFUL:          0  USELESS:          0
cpu0_DTLB AVERAGE MISS LATENCY: 101.253 cycles
cpu0_ITLB TOTAL     ACCESS:    3124725  HIT:    3124668  MISS:         57
cpu0_ITLB LOAD      ACCESS:    3124725  HIT:    3124668  MISS:         57
cpu0_ITLB RFO       ACCESS:          0  HIT:          0  MISS:          0
cpu0_ITLB PREFETCH  ACCESS:          0  HIT:          0  MISS:          0
cpu0_ITLB WRITEBACK ACCESS:          0  HIT:          0  MISS:          0
cpu0_ITLB TRANSLATION ACCESS:          0  HIT:          0  MISS:          0
cpu0_ITLB PREFETCH  REQUESTED:          0  ISSUED:          0  USEFUL:          0  USELESS:          0
cpu0_ITLB AVERAGE MISS LATENCY: 242.877 cycles
cpu0_L1I TOTAL     ACCESS:    1637327  HIT:    1636255  MISS:       1072
cpu0_L1I LOAD      ACCESS:    1637327  HIT:    1636255  MISS:       1072
cpu0_L1I RFO       ACCESS:          0  HIT:          0  MISS:          0
cpu0_L1I PREFETCH  ACCESS:          0  HIT:          0  MISS:          0
cpu0_L1I WRITEBACK ACCESS:          0  HIT:          0  MISS:          0
cpu0_L1I TRANSLATION ACCESS:          0  HIT:          0  MISS:          0
cpu0_L1I PREFETCH  REQUESTED:          0  ISSUED:          0  USEFUL:          0  USELESS:          0
cpu0_L1I AVERAGE MISS LATENCY: 337.672 cycles
cpu0_STLB TOTAL     ACCESS:     112713  HIT:      63017  MISS:      49696
cpu0_STLB LOAD      ACCESS:      95809  HIT:      56443  MISS:      39366
cpu0_STLB RFO       ACCESS:      16904  HIT:       6574  MISS:      10330
cpu0_STLB PREFETCH  ACCESS:          0  HIT:          0  MISS:          0
cpu0_STLB WRITEBACK ACCESS:          0  HIT:          0  MISS:          0
cpu0_STLB TRANSLATION ACCESS:          0  HIT:          0  MISS:          0
cpu0_STLB PREFETCH  REQUESTED:          0  ISSUED:          0  USEFUL:          0  USELESS:          0
cpu0_STLB AVERAGE MISS LATENCY: 209.317 cycles
cpu0_L1D TOTAL     ACCESS:   22193401  HIT:   18157491  MISS:    4035910
cpu0_L1D LOAD      ACCESS:   13816578  HIT:   10727803  MISS:    3088775
cpu0_L1D RFO       ACCESS:    8334415  HIT:    7392193  MISS:     942222
cpu0_L1D PREFETCH  ACCESS:          0  HIT:          0  MISS:          0
cpu0_L1D WRITEBACK ACCESS:          0  HIT:          0  MISS:          0
cpu0_L1D TRANSLATION ACCESS:      42408  HIT:      37495  MISS:       4913
cpu0_L1D PREFETCH  REQUESTED:          0  ISSUED:          0  USEFUL:          0  USELESS:          0
cpu0_L1D AVERAGE MISS LATENCY: 616.879 cycles
cpu0_L2C TOTAL     ACCESS:    5249165  HIT:    2252260  MISS:    2996905
cpu0_L2C LOAD      ACCESS:    3089840  HIT:     791515  MISS:    2298325
cpu0_L2C RFO       ACCESS:     942125  HIT:     246116  MISS:     696009
cpu0_L2C PREFETCH  ACCESS:          0  HIT:          0  MISS:          0
cpu0_L2C WRITEBACK ACCESS:    1212287  HIT:    1209997  MISS:       2290
cpu0_L2C TRANSLATION ACCESS:       4913  HIT:       4632  MISS:        281
cpu0_L2C PREFETCH  REQUESTED:          0  ISSUED:          0  USEFUL:          0  USELESS:          0
cpu0_L2C AVERAGE MISS LATENCY: 815.974 cycles
LLC TOTAL     ACCESS:    3927869  HIT:     653461  MISS:    3274408
LLC LOAD      ACCESS:    2298319  HIT:     390824  MISS:    1907495
LLC RFO       ACCESS:     696002  HIT:      36621  MISS:     659381
LLC PREFETCH  ACCESS:          0  HIT:          0  MISS:          0
LLC WRITEBACK ACCESS:     933267  HIT:     225940  MISS:     707327
LLC TRANSLATION ACCESS:        281  HIT:         76  MISS:        205
LLC PREFETCH  REQUESTED:          0  ISSUED:          0  USEFUL:          0  USELESS:          0
LLC AVERAGE MISS LATENCY: 727.583 cycles
OPTgen accesses: 50360
OPTgen hits: 10084
OPTgen hit rate: 20.0238



DRAM Statistics
 CHANNEL 0
 RQ ROW_BUFFER_HIT:     171622  ROW_BUFFER_MISS:    2395251
 DBUS AVG_CONGESTED_CYCLE:    3.97288
 WQ ROW_BUFFER_HIT:      49036  ROW_BUFFER_MISS:     817095  FULL:      12680


CPU 0 Branch Prediction Accuracy: 96.9231% MPKI: 1.73686 Average ROB Occupancy at Mispredict: 309.354
Branch type MPKI
BRANCH_DIRECT_JUMP: 0.00082
BRANCH_INDIRECT: 0.00014
BRANCH_CONDITIONAL: 1.73229
BRANCH_DIRECT_CALL: 0.00185
BRANCH_INDIRECT_CALL: 3e-05
BRANCH_RETURN: 0.00173

