
*** ChampSim Multicore Out-of-Order Simulator ***

Warmup Instructions: 10000000
Simulation Instructions: 100000000
Number of CPUs: 1
Off-chip DRAM Size: 4 GiB Channels: 1 Width: 64-bit Data Rate: 3200 MT/s

VirtualMemory physical capacity: 8588881920 num_ppages: 2096895
VirtualMemory page size: 4096 log2_page_size: 12

CPU 0 runs /datasets/cs240c-wi22-a00-public/data/Assignment2/zeusmp_100B.trace.xz
CPU 0 Bimodal branch predictor
Basic BTB sets: 1024 ways: 8 indirect buffer size: 4096 RAS size: 64
Initialize Hawkeye state
Heartbeat CPU 0 instructions: 10000000 cycles: 2533557 heartbeat IPC: 3.94702 cumulative IPC: 3.94702 (Simulation time: 0 hr 0 min 24 sec) 

Warmup complete CPU 0 instructions: 10000004 cycles: 2533558 (Simulation time: 0 hr 0 min 24 sec) 

Heartbeat CPU 0 instructions: 20000003 cycles: 8005174 heartbeat IPC: 1.82761 cumulative IPC: 1.82761 (Simulation time: 0 hr 1 min 9 sec) 
Heartbeat CPU 0 instructions: 30000000 cycles: 13914638 heartbeat IPC: 1.6922 cumulative IPC: 1.7573 (Simulation time: 0 hr 1 min 56 sec) 
Heartbeat CPU 0 instructions: 40000004 cycles: 19829257 heartbeat IPC: 1.69073 cumulative IPC: 1.73454 (Simulation time: 0 hr 2 min 44 sec) 
Heartbeat CPU 0 instructions: 50000001 cycles: 25720321 heartbeat IPC: 1.69749 cumulative IPC: 1.72512 (Simulation time: 0 hr 3 min 30 sec) 
Heartbeat CPU 0 instructions: 60000004 cycles: 31636571 heartbeat IPC: 1.69026 cumulative IPC: 1.71804 (Simulation time: 0 hr 4 min 17 sec) 
Heartbeat CPU 0 instructions: 70000001 cycles: 37518788 heartbeat IPC: 1.70004 cumulative IPC: 1.71501 (Simulation time: 0 hr 5 min 5 sec) 
Heartbeat CPU 0 instructions: 80000001 cycles: 43436126 heartbeat IPC: 1.68995 cumulative IPC: 1.71138 (Simulation time: 0 hr 5 min 54 sec) 
Heartbeat CPU 0 instructions: 90000000 cycles: 49348198 heartbeat IPC: 1.69145 cumulative IPC: 1.70887 (Simulation time: 0 hr 6 min 44 sec) 
Heartbeat CPU 0 instructions: 100000000 cycles: 55236795 heartbeat IPC: 1.6982 cumulative IPC: 1.70767 (Simulation time: 0 hr 7 min 31 sec) 
Heartbeat CPU 0 instructions: 110000003 cycles: 61154815 heartbeat IPC: 1.68975 cumulative IPC: 1.70587 (Simulation time: 0 hr 8 min 18 sec) 
Finished CPU 0 instructions: 100000004 cycles: 58621258 cumulative IPC: 1.70587 (Simulation time: 0 hr 8 min 18 sec) 

ChampSim completed all CPUs

Region of Interest Statistics

CPU 0 cumulative IPC: 1.70587 instructions: 100000004 cycles: 58621258
cpu0_DTLB TOTAL     ACCESS:   16444818  HIT:   12280385  MISS:    4164433
cpu0_DTLB LOAD      ACCESS:   11966192  HIT:    9308857  MISS:    2657335
cpu0_DTLB RFO       ACCESS:    4478626  HIT:    2971528  MISS:    1507098
cpu0_DTLB PREFETCH  ACCESS:          0  HIT:          0  MISS:          0
cpu0_DTLB WRITEBACK ACCESS:          0  HIT:          0  MISS:          0
cpu0_DTLB TRANSLATION ACCESS:          0  HIT:          0  MISS:          0
cpu0_DTLB PREFETCH  REQUESTED:          0  ISSUED:          0  USEFUL:          0  USELESS:          0
cpu0_DTLB AVERAGE MISS LATENCY: 10.4023 cycles
cpu0_ITLB TOTAL     ACCESS:    2227433  HIT:    2227432  MISS:          1
cpu0_ITLB LOAD      ACCESS:    2227433  HIT:    2227432  MISS:          1
cpu0_ITLB RFO       ACCESS:          0  HIT:          0  MISS:          0
cpu0_ITLB PREFETCH  ACCESS:          0  HIT:          0  MISS:          0
cpu0_ITLB WRITEBACK ACCESS:          0  HIT:          0  MISS:          0
cpu0_ITLB TRANSLATION ACCESS:          0  HIT:          0  MISS:          0
cpu0_ITLB PREFETCH  REQUESTED:          0  ISSUED:          0  USEFUL:          0  USELESS:          0
cpu0_ITLB AVERAGE MISS LATENCY: 249 cycles
cpu0_L1I TOTAL     ACCESS:    3117525  HIT:    3117474  MISS:         51
cpu0_L1I LOAD      ACCESS:    3117525  HIT:    3117474  MISS:         51
cpu0_L1I RFO       ACCESS:          0  HIT:          0  MISS:          0
cpu0_L1I PREFETCH  ACCESS:          0  HIT:          0  MISS:          0
cpu0_L1I WRITEBACK ACCESS:          0  HIT:          0  MISS:          0
cpu0_L1I TRANSLATION ACCESS:          0  HIT:          0  MISS:          0
cpu0_L1I PREFETCH  REQUESTED:          0  ISSUED:          0  USEFUL:          0  USELESS:          0
cpu0_L1I AVERAGE MISS LATENCY: 324.49 cycles
cpu0_STLB TOTAL     ACCESS:    4164434  HIT:    4155995  MISS:       8439
cpu0_STLB LOAD      ACCESS:    2657336  HIT:    2652173  MISS:       5163
cpu0_STLB RFO       ACCESS:    1507098  HIT:    1503822  MISS:       3276
cpu0_STLB PREFETCH  ACCESS:          0  HIT:          0  MISS:          0
cpu0_STLB WRITEBACK ACCESS:          0  HIT:          0  MISS:          0
cpu0_STLB TRANSLATION ACCESS:          0  HIT:          0  MISS:          0
cpu0_STLB PREFETCH  REQUESTED:          0  ISSUED:          0  USEFUL:          0  USELESS:          0
cpu0_STLB AVERAGE MISS LATENCY: 555.416 cycles
cpu0_L1D TOTAL     ACCESS:   19021149  HIT:   13986242  MISS:    5034907
cpu0_L1D LOAD      ACCESS:   12125854  HIT:    8890821  MISS:    3235033
cpu0_L1D RFO       ACCESS:    6886965  HIT:    5094788  MISS:    1792177
cpu0_L1D PREFETCH  ACCESS:          0  HIT:          0  MISS:          0
cpu0_L1D WRITEBACK ACCESS:          0  HIT:          0  MISS:          0
cpu0_L1D TRANSLATION ACCESS:       8330  HIT:        633  MISS:       7697
cpu0_L1D PREFETCH  REQUESTED:          0  ISSUED:          0  USEFUL:          0  USELESS:          0
cpu0_L1D AVERAGE MISS LATENCY: 86.2987 cycles
cpu0_L2C TOTAL     ACCESS:    6855622  HIT:    6268062  MISS:     587560
cpu0_L2C LOAD      ACCESS:    3234808  HIT:    2840814  MISS:     393994
cpu0_L2C RFO       ACCESS:    1790655  HIT:    1597393  MISS:     193262
cpu0_L2C PREFETCH  ACCESS:          0  HIT:          0  MISS:          0
cpu0_L2C WRITEBACK ACCESS:    1822462  HIT:    1822164  MISS:        298
cpu0_L2C TRANSLATION ACCESS:       7697  HIT:       7691  MISS:          6
cpu0_L2C PREFETCH  REQUESTED:          0  ISSUED:          0  USEFUL:          0  USELESS:          0
cpu0_L2C AVERAGE MISS LATENCY: 644.387 cycles
LLC TOTAL     ACCESS:     780609  HIT:     113072  MISS:     667537
LLC LOAD      ACCESS:     393994  HIT:      88608  MISS:     305386
LLC RFO       ACCESS:     193262  HIT:          0  MISS:     193262
LLC PREFETCH  ACCESS:          0  HIT:          0  MISS:          0
LLC WRITEBACK ACCESS:     193347  HIT:      24463  MISS:     168884
LLC TRANSLATION ACCESS:          6  HIT:          1  MISS:          5
LLC PREFETCH  REQUESTED:          0  ISSUED:          0  USEFUL:          0  USELESS:          0
LLC AVERAGE MISS LATENCY: 548.709 cycles
OPTgen accesses: 9773
OPTgen hits: 1565
OPTgen hit rate: 16.0135



DRAM Statistics
 CHANNEL 0
 RQ ROW_BUFFER_HIT:        133  ROW_BUFFER_MISS:     498520
 DBUS AVG_CONGESTED_CYCLE:    3.99927
 WQ ROW_BUFFER_HIT:        445  ROW_BUFFER_MISS:     189539  FULL:          0


CPU 0 Branch Prediction Accuracy: 99.0158% MPKI: 0.52371 Average ROB Occupancy at Mispredict: 235.807
Branch type MPKI
BRANCH_DIRECT_JUMP: 1e-05
BRANCH_INDIRECT: 0
BRANCH_CONDITIONAL: 0.5237
BRANCH_DIRECT_CALL: 0
BRANCH_INDIRECT_CALL: 0
BRANCH_RETURN: 0

