
*** ChampSim Multicore Out-of-Order Simulator ***

Warmup Instructions: 10000000
Simulation Instructions: 100000000
Number of CPUs: 1
Off-chip DRAM Size: 4 GiB Channels: 1 Width: 64-bit Data Rate: 3200 MT/s

VirtualMemory physical capacity: 8588881920 num_ppages: 2096895
VirtualMemory page size: 4096 log2_page_size: 12

CPU 0 runs /datasets/cs240c-wi22-a00-public/data/Assignment2/omnetpp_4B.trace.xz
CPU 0 Bimodal branch predictor
Basic BTB sets: 1024 ways: 8 indirect buffer size: 4096 RAS size: 64
Initialize Hawkeye state
Heartbeat CPU 0 instructions: 10000002 cycles: 2526524 heartbeat IPC: 3.95801 cumulative IPC: 3.95801 (Simulation time: 0 hr 0 min 25 sec) 

Warmup complete CPU 0 instructions: 10000002 cycles: 2526524 (Simulation time: 0 hr 0 min 25 sec) 

Heartbeat CPU 0 instructions: 20000000 cycles: 9658383 heartbeat IPC: 1.40216 cumulative IPC: 1.40216 (Simulation time: 0 hr 1 min 4 sec) 
Heartbeat CPU 0 instructions: 30000001 cycles: 17769061 heartbeat IPC: 1.23294 cumulative IPC: 1.31212 (Simulation time: 0 hr 1 min 53 sec) 
Heartbeat CPU 0 instructions: 40000002 cycles: 25709513 heartbeat IPC: 1.25937 cumulative IPC: 1.29405 (Simulation time: 0 hr 2 min 41 sec) 
Heartbeat CPU 0 instructions: 50000000 cycles: 33341837 heartbeat IPC: 1.31022 cumulative IPC: 1.29806 (Simulation time: 0 hr 3 min 25 sec) 
Heartbeat CPU 0 instructions: 60000000 cycles: 41525126 heartbeat IPC: 1.222 cumulative IPC: 1.2821 (Simulation time: 0 hr 4 min 14 sec) 
Heartbeat CPU 0 instructions: 70000000 cycles: 49149238 heartbeat IPC: 1.31163 cumulative IPC: 1.28693 (Simulation time: 0 hr 5 min 0 sec) 
Heartbeat CPU 0 instructions: 80000000 cycles: 57050436 heartbeat IPC: 1.26563 cumulative IPC: 1.28384 (Simulation time: 0 hr 5 min 49 sec) 
Heartbeat CPU 0 instructions: 90000000 cycles: 65522564 heartbeat IPC: 1.18034 cumulative IPC: 1.26992 (Simulation time: 0 hr 6 min 40 sec) 
Heartbeat CPU 0 instructions: 100000001 cycles: 72890146 heartbeat IPC: 1.3573 cumulative IPC: 1.27907 (Simulation time: 0 hr 7 min 22 sec) 
Heartbeat CPU 0 instructions: 110000002 cycles: 81152306 heartbeat IPC: 1.21034 cumulative IPC: 1.27185 (Simulation time: 0 hr 8 min 11 sec) 
Finished CPU 0 instructions: 100000000 cycles: 78625782 cumulative IPC: 1.27185 (Simulation time: 0 hr 8 min 11 sec) 

ChampSim completed all CPUs

Region of Interest Statistics

CPU 0 cumulative IPC: 1.27185 instructions: 100000000 cycles: 78625782
cpu0_DTLB TOTAL     ACCESS:   11770486  HIT:   10338596  MISS:    1431890
cpu0_DTLB LOAD      ACCESS:    9184234  HIT:    7753908  MISS:    1430326
cpu0_DTLB RFO       ACCESS:    2586252  HIT:    2584688  MISS:       1564
cpu0_DTLB PREFETCH  ACCESS:          0  HIT:          0  MISS:          0
cpu0_DTLB WRITEBACK ACCESS:          0  HIT:          0  MISS:          0
cpu0_DTLB TRANSLATION ACCESS:          0  HIT:          0  MISS:          0
cpu0_DTLB PREFETCH  REQUESTED:          0  ISSUED:          0  USEFUL:          0  USELESS:          0
cpu0_DTLB AVERAGE MISS LATENCY: 17.7497 cycles
cpu0_ITLB TOTAL     ACCESS:    7987543  HIT:    7963376  MISS:      24167
cpu0_ITLB LOAD      ACCESS:    7987543  HIT:    7963376  MISS:      24167
cpu0_ITLB RFO       ACCESS:          0  HIT:          0  MISS:          0
cpu0_ITLB PREFETCH  ACCESS:          0  HIT:          0  MISS:          0
cpu0_ITLB WRITEBACK ACCESS:          0  HIT:          0  MISS:          0
cpu0_ITLB TRANSLATION ACCESS:          0  HIT:          0  MISS:          0
cpu0_ITLB PREFETCH  REQUESTED:          0  ISSUED:          0  USEFUL:          0  USELESS:          0
cpu0_ITLB AVERAGE MISS LATENCY: 10.8434 cycles
cpu0_L1I TOTAL     ACCESS:    1939579  HIT:    1876732  MISS:      62847
cpu0_L1I LOAD      ACCESS:    1939579  HIT:    1876732  MISS:      62847
cpu0_L1I RFO       ACCESS:          0  HIT:          0  MISS:          0
cpu0_L1I PREFETCH  ACCESS:          0  HIT:          0  MISS:          0
cpu0_L1I WRITEBACK ACCESS:          0  HIT:          0  MISS:          0
cpu0_L1I TRANSLATION ACCESS:          0  HIT:          0  MISS:          0
cpu0_L1I PREFETCH  REQUESTED:          0  ISSUED:          0  USEFUL:          0  USELESS:          0
cpu0_L1I AVERAGE MISS LATENCY: 51.4237 cycles
cpu0_STLB TOTAL     ACCESS:    1456057  HIT:      23508  MISS:    1432549
cpu0_STLB LOAD      ACCESS:    1454493  HIT:      22761  MISS:    1431732
cpu0_STLB RFO       ACCESS:       1564  HIT:        747  MISS:        817
cpu0_STLB PREFETCH  ACCESS:          0  HIT:          0  MISS:          0
cpu0_STLB WRITEBACK ACCESS:          0  HIT:          0  MISS:          0
cpu0_STLB TRANSLATION ACCESS:          0  HIT:          0  MISS:          0
cpu0_STLB PREFETCH  REQUESTED:          0  ISSUED:          0  USEFUL:          0  USELESS:          0
cpu0_STLB AVERAGE MISS LATENCY: 8.35834 cycles
cpu0_L1D TOTAL     ACCESS:   12780509  HIT:   10290607  MISS:    2489902
cpu0_L1D LOAD      ACCESS:    7430615  HIT:    4979419  MISS:    2451196
cpu0_L1D RFO       ACCESS:    4650535  HIT:    4612823  MISS:      37712
cpu0_L1D PREFETCH  ACCESS:          0  HIT:          0  MISS:          0
cpu0_L1D WRITEBACK ACCESS:          0  HIT:          0  MISS:          0
cpu0_L1D TRANSLATION ACCESS:     699359  HIT:     698365  MISS:        994
cpu0_L1D PREFETCH  REQUESTED:          0  ISSUED:          0  USEFUL:          0  USELESS:          0
cpu0_L1D AVERAGE MISS LATENCY: 103.46 cycles
cpu0_L2C TOTAL     ACCESS:    2633686  HIT:     114318  MISS:    2519368
cpu0_L2C LOAD      ACCESS:    2514042  HIT:      32387  MISS:    2481655
cpu0_L2C RFO       ACCESS:      37712  HIT:        794  MISS:      36918
cpu0_L2C PREFETCH  ACCESS:          0  HIT:          0  MISS:          0
cpu0_L2C WRITEBACK ACCESS:      80938  HIT:      80938  MISS:          0
cpu0_L2C TRANSLATION ACCESS:        994  HIT:        199  MISS:        795
cpu0_L2C PREFETCH  REQUESTED:          0  ISSUED:          0  USEFUL:          0  USELESS:          0
cpu0_L2C AVERAGE MISS LATENCY: 91.854 cycles
LLC TOTAL     ACCESS:    2598898  HIT:    2026116  MISS:     572782
LLC LOAD      ACCESS:    2481651  HIT:    1935139  MISS:     546512
LLC RFO       ACCESS:      36918  HIT:      16713  MISS:      20205
LLC PREFETCH  ACCESS:          0  HIT:          0  MISS:          0
LLC WRITEBACK ACCESS:      79534  HIT:      73691  MISS:       5843
LLC TRANSLATION ACCESS:        795  HIT:        573  MISS:        222
LLC PREFETCH  REQUESTED:          0  ISSUED:          0  USEFUL:          0  USELESS:          0
LLC AVERAGE MISS LATENCY: 311.597 cycles
OPTgen accesses: 44262
OPTgen hits: 39395
OPTgen hit rate: 89.0041



DRAM Statistics
 CHANNEL 0
 RQ ROW_BUFFER_HIT:      24798  ROW_BUFFER_MISS:     538921
 DBUS AVG_CONGESTED_CYCLE:    3.95474
 WQ ROW_BUFFER_HIT:       6548  ROW_BUFFER_MISS:      46580  FULL:          0


CPU 0 Branch Prediction Accuracy: 97.4293% MPKI: 8.26178 Average ROB Occupancy at Mispredict: 57.0718
Branch type MPKI
BRANCH_DIRECT_JUMP: 0.00037
BRANCH_INDIRECT: 0.12485
BRANCH_CONDITIONAL: 8.10493
BRANCH_DIRECT_CALL: 0.00326
BRANCH_INDIRECT_CALL: 0.00558
BRANCH_RETURN: 0.02279

