
*** ChampSim Multicore Out-of-Order Simulator ***

Warmup Instructions: 10000000
Simulation Instructions: 100000000
Number of CPUs: 1
Off-chip DRAM Size: 4 GiB Channels: 1 Width: 64-bit Data Rate: 3200 MT/s

VirtualMemory physical capacity: 8588881920 num_ppages: 2096895
VirtualMemory page size: 4096 log2_page_size: 12

CPU 0 runs /datasets/cs240c-wi22-a00-public/data/Assignment2/lbm_1004B.trace.xz
CPU 0 Bimodal branch predictor
Basic BTB sets: 1024 ways: 8 indirect buffer size: 4096 RAS size: 64
Initialize Hawkeye state
Heartbeat CPU 0 instructions: 10000003 cycles: 2504746 heartbeat IPC: 3.99242 cumulative IPC: 3.99242 (Simulation time: 0 hr 0 min 30 sec) 

Warmup complete CPU 0 instructions: 10000003 cycles: 2504746 (Simulation time: 0 hr 0 min 30 sec) 

Heartbeat CPU 0 instructions: 20000004 cycles: 32209528 heartbeat IPC: 0.336646 cumulative IPC: 0.336646 (Simulation time: 0 hr 2 min 56 sec) 
Heartbeat CPU 0 instructions: 30000004 cycles: 62244420 heartbeat IPC: 0.332946 cumulative IPC: 0.334786 (Simulation time: 0 hr 5 min 23 sec) 
Heartbeat CPU 0 instructions: 40000004 cycles: 91761051 heartbeat IPC: 0.338792 cumulative IPC: 0.336111 (Simulation time: 0 hr 7 min 48 sec) 
Heartbeat CPU 0 instructions: 50000004 cycles: 121819575 heartbeat IPC: 0.332684 cumulative IPC: 0.335248 (Simulation time: 0 hr 10 min 16 sec) 
Heartbeat CPU 0 instructions: 60000004 cycles: 152560558 heartbeat IPC: 0.325299 cumulative IPC: 0.333209 (Simulation time: 0 hr 12 min 48 sec) 
Heartbeat CPU 0 instructions: 70000001 cycles: 183107677 heartbeat IPC: 0.327363 cumulative IPC: 0.332221 (Simulation time: 0 hr 15 min 23 sec) 
Heartbeat CPU 0 instructions: 80000000 cycles: 236084172 heartbeat IPC: 0.188763 cumulative IPC: 0.299684 (Simulation time: 0 hr 20 min 12 sec) 
Heartbeat CPU 0 instructions: 90000003 cycles: 264852728 heartbeat IPC: 0.347602 cumulative IPC: 0.304938 (Simulation time: 0 hr 22 min 29 sec) 
Heartbeat CPU 0 instructions: 100000000 cycles: 294603064 heartbeat IPC: 0.336131 cumulative IPC: 0.308115 (Simulation time: 0 hr 24 min 51 sec) 
Heartbeat CPU 0 instructions: 110000003 cycles: 323485329 heartbeat IPC: 0.346233 cumulative IPC: 0.311545 (Simulation time: 0 hr 27 min 9 sec) 
Finished CPU 0 instructions: 100000000 cycles: 320980583 cumulative IPC: 0.311545 (Simulation time: 0 hr 27 min 9 sec) 

ChampSim completed all CPUs

Region of Interest Statistics

CPU 0 cumulative IPC: 0.311545 instructions: 100000000 cycles: 320980583
cpu0_DTLB TOTAL     ACCESS:   13656229  HIT:   13605779  MISS:      50450
cpu0_DTLB LOAD      ACCESS:    6951789  HIT:    6939170  MISS:      12619
cpu0_DTLB RFO       ACCESS:    6704440  HIT:    6666609  MISS:      37831
cpu0_DTLB PREFETCH  ACCESS:          0  HIT:          0  MISS:          0
cpu0_DTLB WRITEBACK ACCESS:          0  HIT:          0  MISS:          0
cpu0_DTLB TRANSLATION ACCESS:          0  HIT:          0  MISS:          0
cpu0_DTLB PREFETCH  REQUESTED:          0  ISSUED:          0  USEFUL:          0  USELESS:          0
cpu0_DTLB AVERAGE MISS LATENCY: 338.598 cycles
cpu0_ITLB TOTAL     ACCESS:     118731  HIT:     118730  MISS:          1
cpu0_ITLB LOAD      ACCESS:     118731  HIT:     118730  MISS:          1
cpu0_ITLB RFO       ACCESS:          0  HIT:          0  MISS:          0
cpu0_ITLB PREFETCH  ACCESS:          0  HIT:          0  MISS:          0
cpu0_ITLB WRITEBACK ACCESS:          0  HIT:          0  MISS:          0
cpu0_ITLB TRANSLATION ACCESS:          0  HIT:          0  MISS:          0
cpu0_ITLB PREFETCH  REQUESTED:          0  ISSUED:          0  USEFUL:          0  USELESS:          0
cpu0_ITLB AVERAGE MISS LATENCY: 2517 cycles
cpu0_L1I TOTAL     ACCESS:         12  HIT:          6  MISS:          6
cpu0_L1I LOAD      ACCESS:         12  HIT:          6  MISS:          6
cpu0_L1I RFO       ACCESS:          0  HIT:          0  MISS:          0
cpu0_L1I PREFETCH  ACCESS:          0  HIT:          0  MISS:          0
cpu0_L1I WRITEBACK ACCESS:          0  HIT:          0  MISS:          0
cpu0_L1I TRANSLATION ACCESS:          0  HIT:          0  MISS:          0
cpu0_L1I PREFETCH  REQUESTED:          0  ISSUED:          0  USEFUL:          0  USELESS:          0
cpu0_L1I AVERAGE MISS LATENCY: 310.5 cycles
cpu0_STLB TOTAL     ACCESS:      50451  HIT:          5  MISS:      50446
cpu0_STLB LOAD      ACCESS:      12620  HIT:          0  MISS:      12620
cpu0_STLB RFO       ACCESS:      37831  HIT:          5  MISS:      37826
cpu0_STLB PREFETCH  ACCESS:          0  HIT:          0  MISS:          0
cpu0_STLB WRITEBACK ACCESS:          0  HIT:          0  MISS:          0
cpu0_STLB TRANSLATION ACCESS:          0  HIT:          0  MISS:          0
cpu0_STLB PREFETCH  REQUESTED:          0  ISSUED:          0  USEFUL:          0  USELESS:          0
cpu0_STLB AVERAGE MISS LATENCY: 329.674 cycles
cpu0_L1D TOTAL     ACCESS:   15134064  HIT:    9813539  MISS:    5320525
cpu0_L1D LOAD      ACCESS:    4359573  HIT:    3553210  MISS:     806363
cpu0_L1D RFO       ACCESS:   10724059  HIT:    6209946  MISS:    4514113
cpu0_L1D PREFETCH  ACCESS:          0  HIT:          0  MISS:          0
cpu0_L1D WRITEBACK ACCESS:          0  HIT:          0  MISS:          0
cpu0_L1D TRANSLATION ACCESS:      50432  HIT:      50383  MISS:         49
cpu0_L1D PREFETCH  REQUESTED:          0  ISSUED:          0  USEFUL:          0  USELESS:          0
cpu0_L1D AVERAGE MISS LATENCY: 414.345 cycles
cpu0_L2C TOTAL     ACCESS:    9834646  HIT:    6608172  MISS:    3226474
cpu0_L2C LOAD      ACCESS:     806369  HIT:        193  MISS:     806176
cpu0_L2C RFO       ACCESS:    4514113  HIT:    2093957  MISS:    2420156
cpu0_L2C PREFETCH  ACCESS:          0  HIT:          0  MISS:          0
cpu0_L2C WRITEBACK ACCESS:    4514115  HIT:    4514022  MISS:         93
cpu0_L2C TRANSLATION ACCESS:         49  HIT:          0  MISS:         49
cpu0_L2C PREFETCH  REQUESTED:          0  ISSUED:          0  USEFUL:          0  USELESS:          0
cpu0_L2C AVERAGE MISS LATENCY: 663.737 cycles
LLC TOTAL     ACCESS:    5646867  HIT:    1674682  MISS:    3972185
LLC LOAD      ACCESS:     806176  HIT:         31  MISS:     806145
LLC RFO       ACCESS:    2420156  HIT:     640339  MISS:    1779817
LLC PREFETCH  ACCESS:          0  HIT:          0  MISS:          0
LLC WRITEBACK ACCESS:    2420486  HIT:    1034295  MISS:    1386191
LLC TRANSLATION ACCESS:         49  HIT:         17  MISS:         32
LLC PREFETCH  REQUESTED:          0  ISSUED:          0  USEFUL:          0  USELESS:          0
LLC AVERAGE MISS LATENCY: 522.074 cycles
OPTgen accesses: 55035
OPTgen hits: 14323
OPTgen hit rate: 26.0253



DRAM Statistics
 CHANNEL 0
 RQ ROW_BUFFER_HIT:      42380  ROW_BUFFER_MISS:    2543460
 DBUS AVG_CONGESTED_CYCLE:    3.99524
 WQ ROW_BUFFER_HIT:      25321  ROW_BUFFER_MISS:    2025886  FULL:          0


CPU 0 Branch Prediction Accuracy: 99.2476% MPKI: 0.09355 Average ROB Occupancy at Mispredict: 169.964
Branch type MPKI
BRANCH_DIRECT_JUMP: 2e-05
BRANCH_INDIRECT: 0
BRANCH_CONDITIONAL: 0.09349
BRANCH_DIRECT_CALL: 2e-05
BRANCH_INDIRECT_CALL: 0
BRANCH_RETURN: 2e-05

