
*** ChampSim Multicore Out-of-Order Simulator ***

Warmup Instructions: 10000000
Simulation Instructions: 100000000
Number of CPUs: 1
Off-chip DRAM Size: 4 GiB Channels: 1 Width: 64-bit Data Rate: 3200 MT/s

VirtualMemory physical capacity: 8588881920 num_ppages: 2096895
VirtualMemory page size: 4096 log2_page_size: 12

CPU 0 runs /datasets/cs240c-wi22-a00-public/data/Assignment2/calculix_2655B.trace.xz
CPU 0 Bimodal branch predictor
Basic BTB sets: 1024 ways: 8 indirect buffer size: 4096 RAS size: 64
Initialize Hawkeye state
Heartbeat CPU 0 instructions: 10000003 cycles: 2503575 heartbeat IPC: 3.99429 cumulative IPC: 3.99429 (Simulation time: 0 hr 0 min 28 sec) 

Warmup complete CPU 0 instructions: 10000003 cycles: 2503575 (Simulation time: 0 hr 0 min 28 sec) 

Heartbeat CPU 0 instructions: 20000002 cycles: 5943089 heartbeat IPC: 2.90739 cumulative IPC: 2.90739 (Simulation time: 0 hr 1 min 3 sec) 
Heartbeat CPU 0 instructions: 30000004 cycles: 9583909 heartbeat IPC: 2.74663 cumulative IPC: 2.82473 (Simulation time: 0 hr 1 min 38 sec) 
Heartbeat CPU 0 instructions: 40000004 cycles: 13223710 heartbeat IPC: 2.7474 cumulative IPC: 2.79847 (Simulation time: 0 hr 2 min 13 sec) 
Heartbeat CPU 0 instructions: 50000001 cycles: 17007291 heartbeat IPC: 2.643 cumulative IPC: 2.75791 (Simulation time: 0 hr 2 min 46 sec) 
Heartbeat CPU 0 instructions: 60000003 cycles: 20989385 heartbeat IPC: 2.51124 cumulative IPC: 2.70478 (Simulation time: 0 hr 3 min 20 sec) 
Heartbeat CPU 0 instructions: 70000001 cycles: 25130879 heartbeat IPC: 2.41459 cumulative IPC: 2.65166 (Simulation time: 0 hr 3 min 56 sec) 
Heartbeat CPU 0 instructions: 80000001 cycles: 28968207 heartbeat IPC: 2.60598 cumulative IPC: 2.64504 (Simulation time: 0 hr 4 min 30 sec) 
Heartbeat CPU 0 instructions: 90000002 cycles: 32746065 heartbeat IPC: 2.647 cumulative IPC: 2.64528 (Simulation time: 0 hr 5 min 3 sec) 
Heartbeat CPU 0 instructions: 100000003 cycles: 36317521 heartbeat IPC: 2.79998 cumulative IPC: 2.66162 (Simulation time: 0 hr 5 min 35 sec) 
Heartbeat CPU 0 instructions: 110000004 cycles: 39876611 heartbeat IPC: 2.80971 cumulative IPC: 2.67573 (Simulation time: 0 hr 6 min 7 sec) 
Finished CPU 0 instructions: 100000001 cycles: 37373036 cumulative IPC: 2.67573 (Simulation time: 0 hr 6 min 7 sec) 

ChampSim completed all CPUs

Region of Interest Statistics

CPU 0 cumulative IPC: 2.67573 instructions: 100000001 cycles: 37373036
cpu0_DTLB TOTAL     ACCESS:   12581413  HIT:   12565868  MISS:      15545
cpu0_DTLB LOAD      ACCESS:   11995013  HIT:   11979512  MISS:      15501
cpu0_DTLB RFO       ACCESS:     586400  HIT:     586356  MISS:         44
cpu0_DTLB PREFETCH  ACCESS:          0  HIT:          0  MISS:          0
cpu0_DTLB WRITEBACK ACCESS:          0  HIT:          0  MISS:          0
cpu0_DTLB TRANSLATION ACCESS:          0  HIT:          0  MISS:          0
cpu0_DTLB PREFETCH  REQUESTED:          0  ISSUED:          0  USEFUL:          0  USELESS:          0
cpu0_DTLB AVERAGE MISS LATENCY: 34.1142 cycles
cpu0_ITLB TOTAL     ACCESS:    6289680  HIT:    6289680  MISS:          0
cpu0_ITLB LOAD      ACCESS:    6289680  HIT:    6289680  MISS:          0
cpu0_ITLB RFO       ACCESS:          0  HIT:          0  MISS:          0
cpu0_ITLB PREFETCH  ACCESS:          0  HIT:          0  MISS:          0
cpu0_ITLB WRITEBACK ACCESS:          0  HIT:          0  MISS:          0
cpu0_ITLB TRANSLATION ACCESS:          0  HIT:          0  MISS:          0
cpu0_ITLB PREFETCH  REQUESTED:          0  ISSUED:          0  USEFUL:          0  USELESS:          0
cpu0_ITLB AVERAGE MISS LATENCY: -nan cycles
cpu0_L1I TOTAL     ACCESS:       2858  HIT:       2858  MISS:          0
cpu0_L1I LOAD      ACCESS:       2858  HIT:       2858  MISS:          0
cpu0_L1I RFO       ACCESS:          0  HIT:          0  MISS:          0
cpu0_L1I PREFETCH  ACCESS:          0  HIT:          0  MISS:          0
cpu0_L1I WRITEBACK ACCESS:          0  HIT:          0  MISS:          0
cpu0_L1I TRANSLATION ACCESS:          0  HIT:          0  MISS:          0
cpu0_L1I PREFETCH  REQUESTED:          0  ISSUED:          0  USEFUL:          0  USELESS:          0
cpu0_L1I AVERAGE MISS LATENCY: -nan cycles
cpu0_STLB TOTAL     ACCESS:      15545  HIT:      13635  MISS:       1910
cpu0_STLB LOAD      ACCESS:      15501  HIT:      13593  MISS:       1908
cpu0_STLB RFO       ACCESS:         44  HIT:         42  MISS:          2
cpu0_STLB PREFETCH  ACCESS:          0  HIT:          0  MISS:          0
cpu0_STLB WRITEBACK ACCESS:          0  HIT:          0  MISS:          0
cpu0_STLB TRANSLATION ACCESS:          0  HIT:          0  MISS:          0
cpu0_STLB PREFETCH  REQUESTED:          0  ISSUED:          0  USEFUL:          0  USELESS:          0
cpu0_STLB AVERAGE MISS LATENCY: 204.26 cycles
cpu0_L1D TOTAL     ACCESS:   14110535  HIT:   12897042  MISS:    1213493
cpu0_L1D LOAD      ACCESS:   12551174  HIT:   11338992  MISS:    1212182
cpu0_L1D RFO       ACCESS:    1557481  HIT:    1556237  MISS:       1244
cpu0_L1D PREFETCH  ACCESS:          0  HIT:          0  MISS:          0
cpu0_L1D WRITEBACK ACCESS:          0  HIT:          0  MISS:          0
cpu0_L1D TRANSLATION ACCESS:       1880  HIT:       1813  MISS:         67
cpu0_L1D PREFETCH  REQUESTED:          0  ISSUED:          0  USEFUL:          0  USELESS:          0
cpu0_L1D AVERAGE MISS LATENCY: 27.3347 cycles
cpu0_L2C TOTAL     ACCESS:    1327973  HIT:    1058352  MISS:     269621
cpu0_L2C LOAD      ACCESS:    1212182  HIT:     942700  MISS:     269482
cpu0_L2C RFO       ACCESS:       1244  HIT:       1214  MISS:         30
cpu0_L2C PREFETCH  ACCESS:          0  HIT:          0  MISS:          0
cpu0_L2C WRITEBACK ACCESS:     114480  HIT:     114388  MISS:         92
cpu0_L2C TRANSLATION ACCESS:         67  HIT:         50  MISS:         17
cpu0_L2C PREFETCH  REQUESTED:          0  ISSUED:          0  USEFUL:          0  USELESS:          0
cpu0_L2C AVERAGE MISS LATENCY: 73.2562 cycles
LLC TOTAL     ACCESS:     335155  HIT:     212748  MISS:     122407
LLC LOAD      ACCESS:     269482  HIT:     147568  MISS:     121914
LLC RFO       ACCESS:         30  HIT:         21  MISS:          9
LLC PREFETCH  ACCESS:          0  HIT:          0  MISS:          0
LLC WRITEBACK ACCESS:      65626  HIT:      65144  MISS:        482
LLC TRANSLATION ACCESS:         17  HIT:         15  MISS:          2
LLC PREFETCH  REQUESTED:          0  ISSUED:          0  USEFUL:          0  USELESS:          0
LLC AVERAGE MISS LATENCY: 115.117 cycles
OPTgen accesses: 4939
OPTgen hits: 2857
OPTgen hit rate: 57.8457



DRAM Statistics
 CHANNEL 0
 RQ ROW_BUFFER_HIT:      85242  ROW_BUFFER_MISS:      36682
 DBUS AVG_CONGESTED_CYCLE:    3.80332
 WQ ROW_BUFFER_HIT:        524  ROW_BUFFER_MISS:       1886  FULL:          0


CPU 0 Branch Prediction Accuracy: 96.352% MPKI: 1.49459 Average ROB Occupancy at Mispredict: 218.966
Branch type MPKI
BRANCH_DIRECT_JUMP: 0
BRANCH_INDIRECT: 0
BRANCH_CONDITIONAL: 1.49459
BRANCH_DIRECT_CALL: 0
BRANCH_INDIRECT_CALL: 0
BRANCH_RETURN: 0

