
*** ChampSim Multicore Out-of-Order Simulator ***

Warmup Instructions: 10000000
Simulation Instructions: 100000000
Number of CPUs: 1
Off-chip DRAM Size: 4 GiB Channels: 1 Width: 64-bit Data Rate: 3200 MT/s

VirtualMemory physical capacity: 8588881920 num_ppages: 2096895
VirtualMemory page size: 4096 log2_page_size: 12

CPU 0 runs /datasets/cs240c-wi22-a00-public/data/Assignment2/libquantum_1735B.trace.xz
CPU 0 Bimodal branch predictor
Basic BTB sets: 1024 ways: 8 indirect buffer size: 4096 RAS size: 64
Initialize Hawkeye state
Heartbeat CPU 0 instructions: 10000002 cycles: 2500058 heartbeat IPC: 3.99991 cumulative IPC: 3.99991 (Simulation time: 0 hr 0 min 25 sec) 

Warmup complete CPU 0 instructions: 10000002 cycles: 2500058 (Simulation time: 0 hr 0 min 25 sec) 

Heartbeat CPU 0 instructions: 20000003 cycles: 36635825 heartbeat IPC: 0.292948 cumulative IPC: 0.292948 (Simulation time: 0 hr 1 min 43 sec) 
Heartbeat CPU 0 instructions: 30000001 cycles: 69863113 heartbeat IPC: 0.300957 cumulative IPC: 0.296899 (Simulation time: 0 hr 2 min 58 sec) 
Heartbeat CPU 0 instructions: 40000003 cycles: 108040353 heartbeat IPC: 0.261936 cumulative IPC: 0.284252 (Simulation time: 0 hr 4 min 17 sec) 
Heartbeat CPU 0 instructions: 50000002 cycles: 145248463 heartbeat IPC: 0.268759 cumulative IPC: 0.280213 (Simulation time: 0 hr 5 min 36 sec) 
Heartbeat CPU 0 instructions: 60000001 cycles: 150231139 heartbeat IPC: 2.00695 cumulative IPC: 0.338453 (Simulation time: 0 hr 6 min 26 sec) 
Heartbeat CPU 0 instructions: 70000002 cycles: 155093603 heartbeat IPC: 2.05657 cumulative IPC: 0.393201 (Simulation time: 0 hr 7 min 15 sec) 
Heartbeat CPU 0 instructions: 80000000 cycles: 193338206 heartbeat IPC: 0.261475 cumulative IPC: 0.366803 (Simulation time: 0 hr 8 min 35 sec) 
Heartbeat CPU 0 instructions: 90000000 cycles: 231254360 heartbeat IPC: 0.26374 cumulative IPC: 0.34972 (Simulation time: 0 hr 9 min 55 sec) 
Heartbeat CPU 0 instructions: 100000000 cycles: 289039526 heartbeat IPC: 0.173055 cumulative IPC: 0.314093 (Simulation time: 0 hr 11 min 37 sec) 
Heartbeat CPU 0 instructions: 110000003 cycles: 327367841 heartbeat IPC: 0.260904 cumulative IPC: 0.307818 (Simulation time: 0 hr 12 min 57 sec) 
Finished CPU 0 instructions: 100000001 cycles: 324867783 cumulative IPC: 0.307818 (Simulation time: 0 hr 12 min 57 sec) 

ChampSim completed all CPUs

Region of Interest Statistics

CPU 0 cumulative IPC: 0.307818 instructions: 100000001 cycles: 324867783
cpu0_DTLB TOTAL     ACCESS:    9915125  HIT:    9871522  MISS:      43603
cpu0_DTLB LOAD      ACCESS:    8282039  HIT:    8238441  MISS:      43598
cpu0_DTLB RFO       ACCESS:    1633086  HIT:    1633081  MISS:          5
cpu0_DTLB PREFETCH  ACCESS:          0  HIT:          0  MISS:          0
cpu0_DTLB WRITEBACK ACCESS:          0  HIT:          0  MISS:          0
cpu0_DTLB TRANSLATION ACCESS:          0  HIT:          0  MISS:          0
cpu0_DTLB PREFETCH  REQUESTED:          0  ISSUED:          0  USEFUL:          0  USELESS:          0
cpu0_DTLB AVERAGE MISS LATENCY: 35.7236 cycles
cpu0_ITLB TOTAL     ACCESS:    4579414  HIT:    4579414  MISS:          0
cpu0_ITLB LOAD      ACCESS:    4579414  HIT:    4579414  MISS:          0
cpu0_ITLB RFO       ACCESS:          0  HIT:          0  MISS:          0
cpu0_ITLB PREFETCH  ACCESS:          0  HIT:          0  MISS:          0
cpu0_ITLB WRITEBACK ACCESS:          0  HIT:          0  MISS:          0
cpu0_ITLB TRANSLATION ACCESS:          0  HIT:          0  MISS:          0
cpu0_ITLB PREFETCH  REQUESTED:          0  ISSUED:          0  USEFUL:          0  USELESS:          0
cpu0_ITLB AVERAGE MISS LATENCY: -nan cycles
cpu0_L1I TOTAL     ACCESS:         20  HIT:         11  MISS:          9
cpu0_L1I LOAD      ACCESS:         20  HIT:         11  MISS:          9
cpu0_L1I RFO       ACCESS:          0  HIT:          0  MISS:          0
cpu0_L1I PREFETCH  ACCESS:          0  HIT:          0  MISS:          0
cpu0_L1I WRITEBACK ACCESS:          0  HIT:          0  MISS:          0
cpu0_L1I TRANSLATION ACCESS:          0  HIT:          0  MISS:          0
cpu0_L1I PREFETCH  REQUESTED:          0  ISSUED:          0  USEFUL:          0  USELESS:          0
cpu0_L1I AVERAGE MISS LATENCY: 195.333 cycles
cpu0_STLB TOTAL     ACCESS:      43603  HIT:          0  MISS:      43603
cpu0_STLB LOAD      ACCESS:      43598  HIT:          0  MISS:      43598
cpu0_STLB RFO       ACCESS:          5  HIT:          0  MISS:          5
cpu0_STLB PREFETCH  ACCESS:          0  HIT:          0  MISS:          0
cpu0_STLB WRITEBACK ACCESS:          0  HIT:          0  MISS:          0
cpu0_STLB TRANSLATION ACCESS:          0  HIT:          0  MISS:          0
cpu0_STLB PREFETCH  REQUESTED:          0  ISSUED:          0  USEFUL:          0  USELESS:          0
cpu0_STLB AVERAGE MISS LATENCY: 26.7236 cycles
cpu0_L1D TOTAL     ACCESS:    6545848  HIT:    3756415  MISS:    2789433
cpu0_L1D LOAD      ACCESS:    4613740  HIT:    1824357  MISS:    2789383
cpu0_L1D RFO       ACCESS:    1888505  HIT:    1888485  MISS:         20
cpu0_L1D PREFETCH  ACCESS:          0  HIT:          0  MISS:          0
cpu0_L1D WRITEBACK ACCESS:          0  HIT:          0  MISS:          0
cpu0_L1D TRANSLATION ACCESS:      43603  HIT:      43573  MISS:         30
cpu0_L1D PREFETCH  REQUESTED:          0  ISSUED:          0  USEFUL:          0  USELESS:          0
cpu0_L1D AVERAGE MISS LATENCY: 160.756 cycles
cpu0_L2C TOTAL     ACCESS:    3804021  HIT:    1014579  MISS:    2789442
cpu0_L2C LOAD      ACCESS:    2789392  HIT:          0  MISS:    2789392
cpu0_L2C RFO       ACCESS:         20  HIT:          0  MISS:         20
cpu0_L2C PREFETCH  ACCESS:          0  HIT:          0  MISS:          0
cpu0_L2C WRITEBACK ACCESS:    1014579  HIT:    1014579  MISS:          0
cpu0_L2C TRANSLATION ACCESS:         30  HIT:          0  MISS:         30
cpu0_L2C PREFETCH  REQUESTED:          0  ISSUED:          0  USEFUL:          0  USELESS:          0
cpu0_L2C AVERAGE MISS LATENCY: 149.752 cycles
LLC TOTAL     ACCESS:    3798498  HIT:     178397  MISS:    3620101
LLC LOAD      ACCESS:    2789392  HIT:     147603  MISS:    2641789
LLC RFO       ACCESS:         20  HIT:         20  MISS:          0
LLC PREFETCH  ACCESS:          0  HIT:          0  MISS:          0
LLC WRITEBACK ACCESS:    1009056  HIT:      30758  MISS:     978298
LLC TRANSLATION ACCESS:         30  HIT:         16  MISS:         14
LLC PREFETCH  REQUESTED:          0  ISSUED:          0  USEFUL:          0  USELESS:          0
LLC AVERAGE MISS LATENCY: 99.2076 cycles
OPTgen accesses: 47722
OPTgen hits: 726
OPTgen hit rate: 1.52131



DRAM Statistics
 CHANNEL 0
 RQ ROW_BUFFER_HIT:    1363510  ROW_BUFFER_MISS:    1278293
 DBUS AVG_CONGESTED_CYCLE:    3.73715
 WQ ROW_BUFFER_HIT:     340775  ROW_BUFFER_MISS:     643891  FULL:       5255


CPU 0 Branch Prediction Accuracy: 89.0086% MPKI: 24.5272 Average ROB Occupancy at Mispredict: 3.91519
Branch type MPKI
BRANCH_DIRECT_JUMP: 2e-05
BRANCH_INDIRECT: 0
BRANCH_CONDITIONAL: 24.527
BRANCH_DIRECT_CALL: 8e-05
BRANCH_INDIRECT_CALL: 0
BRANCH_RETURN: 8e-05

