
*** ChampSim Multicore Out-of-Order Simulator ***

Warmup Instructions: 10000000
Simulation Instructions: 100000000
Number of CPUs: 1
Off-chip DRAM Size: 4 GiB Channels: 1 Width: 64-bit Data Rate: 3200 MT/s

VirtualMemory physical capacity: 8588881920 num_ppages: 2096895
VirtualMemory page size: 4096 log2_page_size: 12

CPU 0 runs /datasets/cs240c-wi22-a00-public/data/Assignment2/sphinx3_2520B.trace.xz
CPU 0 Bimodal branch predictor
Basic BTB sets: 1024 ways: 8 indirect buffer size: 4096 RAS size: 64
Initialize Hawkeye state
Heartbeat CPU 0 instructions: 10000000 cycles: 2589700 heartbeat IPC: 3.86145 cumulative IPC: 3.86145 (Simulation time: 0 hr 0 min 31 sec) 

Warmup complete CPU 0 instructions: 10000004 cycles: 2589701 (Simulation time: 0 hr 0 min 31 sec) 

Heartbeat CPU 0 instructions: 20000002 cycles: 9866040 heartbeat IPC: 1.37432 cumulative IPC: 1.37432 (Simulation time: 0 hr 1 min 23 sec) 
Heartbeat CPU 0 instructions: 30000000 cycles: 17105922 heartbeat IPC: 1.38124 cumulative IPC: 1.37777 (Simulation time: 0 hr 2 min 15 sec) 
Heartbeat CPU 0 instructions: 40000002 cycles: 24092729 heartbeat IPC: 1.43127 cumulative IPC: 1.39515 (Simulation time: 0 hr 3 min 6 sec) 
Heartbeat CPU 0 instructions: 50000004 cycles: 31181321 heartbeat IPC: 1.41072 cumulative IPC: 1.39901 (Simulation time: 0 hr 3 min 58 sec) 
Heartbeat CPU 0 instructions: 60000001 cycles: 37995827 heartbeat IPC: 1.46746 cumulative IPC: 1.41218 (Simulation time: 0 hr 4 min 47 sec) 
Heartbeat CPU 0 instructions: 70000004 cycles: 44934456 heartbeat IPC: 1.44121 cumulative IPC: 1.41694 (Simulation time: 0 hr 5 min 39 sec) 
Heartbeat CPU 0 instructions: 80000000 cycles: 51856760 heartbeat IPC: 1.44461 cumulative IPC: 1.42083 (Simulation time: 0 hr 6 min 31 sec) 
Heartbeat CPU 0 instructions: 90000003 cycles: 58729551 heartbeat IPC: 1.45501 cumulative IPC: 1.42501 (Simulation time: 0 hr 7 min 22 sec) 
Heartbeat CPU 0 instructions: 100000000 cycles: 65677639 heartbeat IPC: 1.43924 cumulative IPC: 1.42658 (Simulation time: 0 hr 8 min 13 sec) 
Heartbeat CPU 0 instructions: 110000003 cycles: 74795082 heartbeat IPC: 1.0968 cumulative IPC: 1.38494 (Simulation time: 0 hr 9 min 11 sec) 
Finished CPU 0 instructions: 100000004 cycles: 72205382 cumulative IPC: 1.38494 (Simulation time: 0 hr 9 min 11 sec) 

ChampSim completed all CPUs

Region of Interest Statistics

CPU 0 cumulative IPC: 1.38494 instructions: 100000004 cycles: 72205382
cpu0_DTLB TOTAL     ACCESS:   15998991  HIT:   15943041  MISS:      55950
cpu0_DTLB LOAD      ACCESS:   14957553  HIT:   14904961  MISS:      52592
cpu0_DTLB RFO       ACCESS:    1041438  HIT:    1038080  MISS:       3358
cpu0_DTLB PREFETCH  ACCESS:          0  HIT:          0  MISS:          0
cpu0_DTLB WRITEBACK ACCESS:          0  HIT:          0  MISS:          0
cpu0_DTLB TRANSLATION ACCESS:          0  HIT:          0  MISS:          0
cpu0_DTLB PREFETCH  REQUESTED:          0  ISSUED:          0  USEFUL:          0  USELESS:          0
cpu0_DTLB AVERAGE MISS LATENCY: 11.4612 cycles
cpu0_ITLB TOTAL     ACCESS:    9299681  HIT:    9299639  MISS:         42
cpu0_ITLB LOAD      ACCESS:    9299681  HIT:    9299639  MISS:         42
cpu0_ITLB RFO       ACCESS:          0  HIT:          0  MISS:          0
cpu0_ITLB PREFETCH  ACCESS:          0  HIT:          0  MISS:          0
cpu0_ITLB WRITEBACK ACCESS:          0  HIT:          0  MISS:          0
cpu0_ITLB TRANSLATION ACCESS:          0  HIT:          0  MISS:          0
cpu0_ITLB PREFETCH  REQUESTED:          0  ISSUED:          0  USEFUL:          0  USELESS:          0
cpu0_ITLB AVERAGE MISS LATENCY: 151.452 cycles
cpu0_L1I TOTAL     ACCESS:     267810  HIT:     266518  MISS:       1292
cpu0_L1I LOAD      ACCESS:     267810  HIT:     266518  MISS:       1292
cpu0_L1I RFO       ACCESS:          0  HIT:          0  MISS:          0
cpu0_L1I PREFETCH  ACCESS:          0  HIT:          0  MISS:          0
cpu0_L1I WRITEBACK ACCESS:          0  HIT:          0  MISS:          0
cpu0_L1I TRANSLATION ACCESS:          0  HIT:          0  MISS:          0
cpu0_L1I PREFETCH  REQUESTED:          0  ISSUED:          0  USEFUL:          0  USELESS:          0
cpu0_L1I AVERAGE MISS LATENCY: 141.905 cycles
cpu0_STLB TOTAL     ACCESS:      55992  HIT:      51185  MISS:       4807
cpu0_STLB LOAD      ACCESS:      52634  HIT:      47959  MISS:       4675
cpu0_STLB RFO       ACCESS:       3358  HIT:       3226  MISS:        132
cpu0_STLB PREFETCH  ACCESS:          0  HIT:          0  MISS:          0
cpu0_STLB WRITEBACK ACCESS:          0  HIT:          0  MISS:          0
cpu0_STLB TRANSLATION ACCESS:          0  HIT:          0  MISS:          0
cpu0_STLB PREFETCH  REQUESTED:          0  ISSUED:          0  USEFUL:          0  USELESS:          0
cpu0_STLB AVERAGE MISS LATENCY: 29.3753 cycles
cpu0_L1D TOTAL     ACCESS:   11305987  HIT:    9966611  MISS:    1339376
cpu0_L1D LOAD      ACCESS:    9999330  HIT:    8785603  MISS:    1213727
cpu0_L1D RFO       ACCESS:    1302122  HIT:    1176587  MISS:     125535
cpu0_L1D PREFETCH  ACCESS:          0  HIT:          0  MISS:          0
cpu0_L1D WRITEBACK ACCESS:          0  HIT:          0  MISS:          0
cpu0_L1D TRANSLATION ACCESS:       4535  HIT:       4421  MISS:        114
cpu0_L1D PREFETCH  REQUESTED:          0  ISSUED:          0  USEFUL:          0  USELESS:          0
cpu0_L1D AVERAGE MISS LATENCY: 100.249 cycles
cpu0_L2C TOTAL     ACCESS:    1472878  HIT:     251103  MISS:    1221775
cpu0_L2C LOAD      ACCESS:    1215018  HIT:     113599  MISS:    1101419
cpu0_L2C RFO       ACCESS:     125535  HIT:       5426  MISS:     120109
cpu0_L2C PREFETCH  ACCESS:          0  HIT:          0  MISS:          0
cpu0_L2C WRITEBACK ACCESS:     132211  HIT:     132049  MISS:        162
cpu0_L2C TRANSLATION ACCESS:        114  HIT:         29  MISS:         85
cpu0_L2C PREFETCH  REQUESTED:          0  ISSUED:          0  USEFUL:          0  USELESS:          0
cpu0_L2C AVERAGE MISS LATENCY: 97.9547 cycles
LLC TOTAL     ACCESS:    1348265  HIT:     796186  MISS:     552079
LLC LOAD      ACCESS:    1101419  HIT:     598939  MISS:     502480
LLC RFO       ACCESS:     120109  HIT:      71679  MISS:      48430
LLC PREFETCH  ACCESS:          0  HIT:          0  MISS:          0
LLC WRITEBACK ACCESS:     126652  HIT:     125552  MISS:       1100
LLC TRANSLATION ACCESS:         85  HIT:         16  MISS:         69
LLC PREFETCH  REQUESTED:          0  ISSUED:          0  USEFUL:          0  USELESS:          0
LLC AVERAGE MISS LATENCY: 170.305 cycles
OPTgen accesses: 21070
OPTgen hits: 14264
OPTgen hit rate: 67.6981



DRAM Statistics
 CHANNEL 0
 RQ ROW_BUFFER_HIT:     152488  ROW_BUFFER_MISS:     396486
 DBUS AVG_CONGESTED_CYCLE:    3.87445
 WQ ROW_BUFFER_HIT:      24100  ROW_BUFFER_MISS:      27846  FULL:        354


CPU 0 Branch Prediction Accuracy: 93.1904% MPKI: 5.9173 Average ROB Occupancy at Mispredict: 205.044
Branch type MPKI
BRANCH_DIRECT_JUMP: 0.00106
BRANCH_INDIRECT: 0
BRANCH_CONDITIONAL: 5.91482
BRANCH_DIRECT_CALL: 0.00069
BRANCH_INDIRECT_CALL: 3e-05
BRANCH_RETURN: 0.0007

