
*** ChampSim Multicore Out-of-Order Simulator ***

Warmup Instructions: 10000000
Simulation Instructions: 100000000
Number of CPUs: 1
Off-chip DRAM Size: 4 GiB Channels: 1 Width: 64-bit Data Rate: 3200 MT/s

VirtualMemory physical capacity: 8588881920 num_ppages: 2096895
VirtualMemory page size: 4096 log2_page_size: 12

CPU 0 runs /datasets/cs240c-wi22-a00-public/data/Assignment2/omnetpp_4B.trace.xz
CPU 0 Bimodal branch predictor
Basic BTB sets: 1024 ways: 8 indirect buffer size: 4096 RAS size: 64
Initialize Hawkeye state
Heartbeat CPU 0 instructions: 10000002 cycles: 2526524 heartbeat IPC: 3.95801 cumulative IPC: 3.95801 (Simulation time: 0 hr 0 min 23 sec) 

Warmup complete CPU 0 instructions: 10000002 cycles: 2526524 (Simulation time: 0 hr 0 min 23 sec) 

Heartbeat CPU 0 instructions: 20000000 cycles: 9619559 heartbeat IPC: 1.40983 cumulative IPC: 1.40983 (Simulation time: 0 hr 0 min 55 sec) 
Heartbeat CPU 0 instructions: 30000001 cycles: 17465363 heartbeat IPC: 1.27457 cumulative IPC: 1.33879 (Simulation time: 0 hr 1 min 35 sec) 
Heartbeat CPU 0 instructions: 40000002 cycles: 25195469 heartbeat IPC: 1.29364 cumulative IPC: 1.3234 (Simulation time: 0 hr 2 min 13 sec) 
Heartbeat CPU 0 instructions: 50000000 cycles: 32655252 heartbeat IPC: 1.34052 cumulative IPC: 1.32764 (Simulation time: 0 hr 2 min 49 sec) 
Heartbeat CPU 0 instructions: 60000000 cycles: 40539066 heartbeat IPC: 1.26842 cumulative IPC: 1.31536 (Simulation time: 0 hr 3 min 29 sec) 
Heartbeat CPU 0 instructions: 70000000 cycles: 47972683 heartbeat IPC: 1.34524 cumulative IPC: 1.32024 (Simulation time: 0 hr 4 min 6 sec) 
Heartbeat CPU 0 instructions: 80000000 cycles: 55662776 heartbeat IPC: 1.30037 cumulative IPC: 1.31737 (Simulation time: 0 hr 4 min 45 sec) 
Heartbeat CPU 0 instructions: 90000000 cycles: 63827269 heartbeat IPC: 1.22482 cumulative IPC: 1.30504 (Simulation time: 0 hr 5 min 27 sec) 
Heartbeat CPU 0 instructions: 100000001 cycles: 71043305 heartbeat IPC: 1.3858 cumulative IPC: 1.31355 (Simulation time: 0 hr 6 min 1 sec) 
Heartbeat CPU 0 instructions: 110000002 cycles: 79053007 heartbeat IPC: 1.24849 cumulative IPC: 1.30674 (Simulation time: 0 hr 6 min 41 sec) 
Finished CPU 0 instructions: 100000000 cycles: 76526483 cumulative IPC: 1.30674 (Simulation time: 0 hr 6 min 41 sec) 

ChampSim completed all CPUs

Region of Interest Statistics

CPU 0 cumulative IPC: 1.30674 instructions: 100000000 cycles: 76526483
cpu0_DTLB TOTAL     ACCESS:   11766644  HIT:   10334745  MISS:    1431899
cpu0_DTLB LOAD      ACCESS:    9180463  HIT:    7750129  MISS:    1430334
cpu0_DTLB RFO       ACCESS:    2586181  HIT:    2584616  MISS:       1565
cpu0_DTLB PREFETCH  ACCESS:          0  HIT:          0  MISS:          0
cpu0_DTLB WRITEBACK ACCESS:          0  HIT:          0  MISS:          0
cpu0_DTLB TRANSLATION ACCESS:          0  HIT:          0  MISS:          0
cpu0_DTLB PREFETCH  REQUESTED:          0  ISSUED:          0  USEFUL:          0  USELESS:          0
cpu0_DTLB AVERAGE MISS LATENCY: 17.6919 cycles
cpu0_ITLB TOTAL     ACCESS:    7987539  HIT:    7963372  MISS:      24167
cpu0_ITLB LOAD      ACCESS:    7987539  HIT:    7963372  MISS:      24167
cpu0_ITLB RFO       ACCESS:          0  HIT:          0  MISS:          0
cpu0_ITLB PREFETCH  ACCESS:          0  HIT:          0  MISS:          0
cpu0_ITLB WRITEBACK ACCESS:          0  HIT:          0  MISS:          0
cpu0_ITLB TRANSLATION ACCESS:          0  HIT:          0  MISS:          0
cpu0_ITLB PREFETCH  REQUESTED:          0  ISSUED:          0  USEFUL:          0  USELESS:          0
cpu0_ITLB AVERAGE MISS LATENCY: 10.8433 cycles
cpu0_L1I TOTAL     ACCESS:    1939529  HIT:    1876685  MISS:      62844
cpu0_L1I LOAD      ACCESS:    1939529  HIT:    1876685  MISS:      62844
cpu0_L1I RFO       ACCESS:          0  HIT:          0  MISS:          0
cpu0_L1I PREFETCH  ACCESS:          0  HIT:          0  MISS:          0
cpu0_L1I WRITEBACK ACCESS:          0  HIT:          0  MISS:          0
cpu0_L1I TRANSLATION ACCESS:          0  HIT:          0  MISS:          0
cpu0_L1I PREFETCH  REQUESTED:          0  ISSUED:          0  USEFUL:          0  USELESS:          0
cpu0_L1I AVERAGE MISS LATENCY: 49.1443 cycles
cpu0_STLB TOTAL     ACCESS:    1456066  HIT:      23517  MISS:    1432549
cpu0_STLB LOAD      ACCESS:    1454501  HIT:      22769  MISS:    1431732
cpu0_STLB RFO       ACCESS:       1565  HIT:        748  MISS:        817
cpu0_STLB PREFETCH  ACCESS:          0  HIT:          0  MISS:          0
cpu0_STLB WRITEBACK ACCESS:          0  HIT:          0  MISS:          0
cpu0_STLB TRANSLATION ACCESS:          0  HIT:          0  MISS:          0
cpu0_STLB PREFETCH  REQUESTED:          0  ISSUED:          0  USEFUL:          0  USELESS:          0
cpu0_STLB AVERAGE MISS LATENCY: 8.29893 cycles
cpu0_L1D TOTAL     ACCESS:   12768275  HIT:   10278380  MISS:    2489895
cpu0_L1D LOAD      ACCESS:    7423870  HIT:    4972670  MISS:    2451200
cpu0_L1D RFO       ACCESS:    4650338  HIT:    4612631  MISS:      37707
cpu0_L1D PREFETCH  ACCESS:          0  HIT:          0  MISS:          0
cpu0_L1D WRITEBACK ACCESS:          0  HIT:          0  MISS:          0
cpu0_L1D TRANSLATION ACCESS:     694067  HIT:     693079  MISS:        988
cpu0_L1D PREFETCH  REQUESTED:          0  ISSUED:          0  USEFUL:          0  USELESS:          0
cpu0_L1D AVERAGE MISS LATENCY: 94.6169 cycles
cpu0_L2C TOTAL     ACCESS:    2633677  HIT:     114306  MISS:    2519371
cpu0_L2C LOAD      ACCESS:    2514043  HIT:      32383  MISS:    2481660
cpu0_L2C RFO       ACCESS:      37707  HIT:        794  MISS:      36913
cpu0_L2C PREFETCH  ACCESS:          0  HIT:          0  MISS:          0
cpu0_L2C WRITEBACK ACCESS:      80939  HIT:      80939  MISS:          0
cpu0_L2C TRANSLATION ACCESS:        988  HIT:        190  MISS:        798
cpu0_L2C PREFETCH  REQUESTED:          0  ISSUED:          0  USEFUL:          0  USELESS:          0
cpu0_L2C AVERAGE MISS LATENCY: 83.0495 cycles
LLC TOTAL     ACCESS:    2598904  HIT:    2076585  MISS:     522319
LLC LOAD      ACCESS:    2481657  HIT:    1985307  MISS:     496350
LLC RFO       ACCESS:      36913  HIT:      16809  MISS:      20104
LLC PREFETCH  ACCESS:          0  HIT:          0  MISS:          0
LLC WRITEBACK ACCESS:      79536  HIT:      73872  MISS:       5664
LLC TRANSLATION ACCESS:        798  HIT:        597  MISS:        201
LLC PREFETCH  REQUESTED:          0  ISSUED:          0  USEFUL:          0  USELESS:          0
LLC AVERAGE MISS LATENCY: 299.231 cycles
OPTgen accesses: 44261
OPTgen hits: 38418
OPTgen hit rate: 86.7988



DRAM Statistics
 CHANNEL 0
 RQ ROW_BUFFER_HIT:      24179  ROW_BUFFER_MISS:     488934
 DBUS AVG_CONGESTED_CYCLE:    3.94974
 WQ ROW_BUFFER_HIT:       6297  ROW_BUFFER_MISS:      46633  FULL:          0


CPU 0 Branch Prediction Accuracy: 97.4293% MPKI: 8.26178 Average ROB Occupancy at Mispredict: 57.0623
Branch type MPKI
BRANCH_DIRECT_JUMP: 0.00037
BRANCH_INDIRECT: 0.12485
BRANCH_CONDITIONAL: 8.10493
BRANCH_DIRECT_CALL: 0.00326
BRANCH_INDIRECT_CALL: 0.00558
BRANCH_RETURN: 0.02279

