
*** ChampSim Multicore Out-of-Order Simulator ***

Warmup Instructions: 10000000
Simulation Instructions: 100000000
Number of CPUs: 1
Off-chip DRAM Size: 4 GiB Channels: 1 Width: 64-bit Data Rate: 3200 MT/s

VirtualMemory physical capacity: 8588881920 num_ppages: 2096895
VirtualMemory page size: 4096 log2_page_size: 12

CPU 0 runs /datasets/cs240c-wi22-a00-public/data/Assignment2/soplex_205B.trace.xz
CPU 0 Bimodal branch predictor
Basic BTB sets: 1024 ways: 8 indirect buffer size: 4096 RAS size: 64
Initialize Hawkeye state
Heartbeat CPU 0 instructions: 10000000 cycles: 2865175 heartbeat IPC: 3.49019 cumulative IPC: 3.49019 (Simulation time: 0 hr 0 min 33 sec) 

Warmup complete CPU 0 instructions: 10000004 cycles: 2865176 (Simulation time: 0 hr 0 min 33 sec) 

Heartbeat CPU 0 instructions: 20000004 cycles: 46797132 heartbeat IPC: 0.227625 cumulative IPC: 0.227625 (Simulation time: 0 hr 3 min 32 sec) 
Heartbeat CPU 0 instructions: 30000004 cycles: 82426364 heartbeat IPC: 0.280668 cumulative IPC: 0.251379 (Simulation time: 0 hr 5 min 7 sec) 
Heartbeat CPU 0 instructions: 40000004 cycles: 109818340 heartbeat IPC: 0.36507 cumulative IPC: 0.280497 (Simulation time: 0 hr 6 min 46 sec) 
Heartbeat CPU 0 instructions: 50000001 cycles: 141075783 heartbeat IPC: 0.319924 cumulative IPC: 0.289413 (Simulation time: 0 hr 8 min 30 sec) 
Heartbeat CPU 0 instructions: 60000000 cycles: 167866432 heartbeat IPC: 0.373265 cumulative IPC: 0.303028 (Simulation time: 0 hr 10 min 1 sec) 
Heartbeat CPU 0 instructions: 70000000 cycles: 198576018 heartbeat IPC: 0.325631 cumulative IPC: 0.306575 (Simulation time: 0 hr 11 min 52 sec) 
Heartbeat CPU 0 instructions: 80000003 cycles: 226339647 heartbeat IPC: 0.360184 cumulative IPC: 0.313235 (Simulation time: 0 hr 13 min 22 sec) 
Heartbeat CPU 0 instructions: 90000000 cycles: 259059763 heartbeat IPC: 0.305622 cumulative IPC: 0.312263 (Simulation time: 0 hr 15 min 16 sec) 
Heartbeat CPU 0 instructions: 100000002 cycles: 286267957 heartbeat IPC: 0.367536 cumulative IPC: 0.317569 (Simulation time: 0 hr 16 min 41 sec) 
Heartbeat CPU 0 instructions: 110000000 cycles: 340482532 heartbeat IPC: 0.184452 cumulative IPC: 0.296193 (Simulation time: 0 hr 19 min 18 sec) 
Finished CPU 0 instructions: 100000001 cycles: 337617357 cumulative IPC: 0.296193 (Simulation time: 0 hr 19 min 18 sec) 

ChampSim completed all CPUs

Region of Interest Statistics

CPU 0 cumulative IPC: 0.296193 instructions: 100000001 cycles: 337617357
cpu0_DTLB TOTAL     ACCESS:   22256644  HIT:   21294272  MISS:     962372
cpu0_DTLB LOAD      ACCESS:   16521034  HIT:   15781624  MISS:     739410
cpu0_DTLB RFO       ACCESS:    5735610  HIT:    5512648  MISS:     222962
cpu0_DTLB PREFETCH  ACCESS:          0  HIT:          0  MISS:          0
cpu0_DTLB WRITEBACK ACCESS:          0  HIT:          0  MISS:          0
cpu0_DTLB TRANSLATION ACCESS:          0  HIT:          0  MISS:          0
cpu0_DTLB PREFETCH  REQUESTED:          0  ISSUED:          0  USEFUL:          0  USELESS:          0
cpu0_DTLB AVERAGE MISS LATENCY: 16.3279 cycles
cpu0_ITLB TOTAL     ACCESS:    8005899  HIT:    8005882  MISS:         17
cpu0_ITLB LOAD      ACCESS:    8005899  HIT:    8005882  MISS:         17
cpu0_ITLB RFO       ACCESS:          0  HIT:          0  MISS:          0
cpu0_ITLB PREFETCH  ACCESS:          0  HIT:          0  MISS:          0
cpu0_ITLB WRITEBACK ACCESS:          0  HIT:          0  MISS:          0
cpu0_ITLB TRANSLATION ACCESS:          0  HIT:          0  MISS:          0
cpu0_ITLB PREFETCH  REQUESTED:          0  ISSUED:          0  USEFUL:          0  USELESS:          0
cpu0_ITLB AVERAGE MISS LATENCY: 287.118 cycles
cpu0_L1I TOTAL     ACCESS:     820228  HIT:     819455  MISS:        773
cpu0_L1I LOAD      ACCESS:     820228  HIT:     819455  MISS:        773
cpu0_L1I RFO       ACCESS:          0  HIT:          0  MISS:          0
cpu0_L1I PREFETCH  ACCESS:          0  HIT:          0  MISS:          0
cpu0_L1I WRITEBACK ACCESS:          0  HIT:          0  MISS:          0
cpu0_L1I TRANSLATION ACCESS:          0  HIT:          0  MISS:          0
cpu0_L1I PREFETCH  REQUESTED:          0  ISSUED:          0  USEFUL:          0  USELESS:          0
cpu0_L1I AVERAGE MISS LATENCY: 329.885 cycles
cpu0_STLB TOTAL     ACCESS:     962389  HIT:     806826  MISS:     155563
cpu0_STLB LOAD      ACCESS:     739427  HIT:     594690  MISS:     144737
cpu0_STLB RFO       ACCESS:     222962  HIT:     212136  MISS:      10826
cpu0_STLB PREFETCH  ACCESS:          0  HIT:          0  MISS:          0
cpu0_STLB WRITEBACK ACCESS:          0  HIT:          0  MISS:          0
cpu0_STLB TRANSLATION ACCESS:          0  HIT:          0  MISS:          0
cpu0_STLB PREFETCH  REQUESTED:          0  ISSUED:          0  USEFUL:          0  USELESS:          0
cpu0_STLB AVERAGE MISS LATENCY: 44.4319 cycles
cpu0_L1D TOTAL     ACCESS:   19243790  HIT:   13453121  MISS:    5790669
cpu0_L1D LOAD      ACCESS:   12673462  HIT:    7838800  MISS:    4834662
cpu0_L1D RFO       ACCESS:    6418724  HIT:    5468359  MISS:     950365
cpu0_L1D PREFETCH  ACCESS:          0  HIT:          0  MISS:          0
cpu0_L1D WRITEBACK ACCESS:          0  HIT:          0  MISS:          0
cpu0_L1D TRANSLATION ACCESS:     151604  HIT:     145962  MISS:       5642
cpu0_L1D PREFETCH  REQUESTED:          0  ISSUED:          0  USEFUL:          0  USELESS:          0
cpu0_L1D AVERAGE MISS LATENCY: 226.003 cycles
cpu0_L2C TOTAL     ACCESS:    8361069  HIT:    3855076  MISS:    4505993
cpu0_L2C LOAD      ACCESS:    4835019  HIT:    1131264  MISS:    3703755
cpu0_L2C RFO       ACCESS:     950295  HIT:     148948  MISS:     801347
cpu0_L2C PREFETCH  ACCESS:          0  HIT:          0  MISS:          0
cpu0_L2C WRITEBACK ACCESS:    2570113  HIT:    2570041  MISS:         72
cpu0_L2C TRANSLATION ACCESS:       5642  HIT:       4823  MISS:        819
cpu0_L2C PREFETCH  REQUESTED:          0  ISSUED:          0  USEFUL:          0  USELESS:          0
cpu0_L2C AVERAGE MISS LATENCY: 276.143 cycles
LLC TOTAL     ACCESS:    6406250  HIT:    3214106  MISS:    3192144
LLC LOAD      ACCESS:    3703732  HIT:    1436483  MISS:    2267249
LLC RFO       ACCESS:     801341  HIT:     294061  MISS:     507280
LLC PREFETCH  ACCESS:          0  HIT:          0  MISS:          0
LLC WRITEBACK ACCESS:    1900358  HIT:    1483152  MISS:     417206
LLC TRANSLATION ACCESS:        819  HIT:        410  MISS:        409
LLC PREFETCH  REQUESTED:          0  ISSUED:          0  USEFUL:          0  USELESS:          0
LLC AVERAGE MISS LATENCY: 359.657 cycles
OPTgen accesses: 77376
OPTgen hits: 37199
OPTgen hit rate: 48.0756



DRAM Statistics
 CHANNEL 0
 RQ ROW_BUFFER_HIT:     286162  ROW_BUFFER_MISS:    2486416
 DBUS AVG_CONGESTED_CYCLE:    3.95708
 WQ ROW_BUFFER_HIT:      45638  ROW_BUFFER_MISS:    1001055  FULL:     569740


CPU 0 Branch Prediction Accuracy: 93.3985% MPKI: 13.5305 Average ROB Occupancy at Mispredict: 47.7688
Branch type MPKI
BRANCH_DIRECT_JUMP: 0.00081
BRANCH_INDIRECT: 0.00022
BRANCH_CONDITIONAL: 13.5274
BRANCH_DIRECT_CALL: 0.00058
BRANCH_INDIRECT_CALL: 0.00056
BRANCH_RETURN: 0.00094

