
*** ChampSim Multicore Out-of-Order Simulator ***

Warmup Instructions: 10000000
Simulation Instructions: 100000000
Number of CPUs: 1
Off-chip DRAM Size: 4 GiB Channels: 1 Width: 64-bit Data Rate: 3200 MT/s

VirtualMemory physical capacity: 8588881920 num_ppages: 2096895
VirtualMemory page size: 4096 log2_page_size: 12

CPU 0 runs /datasets/cs240c-wi22-a00-public/data/Assignment2/omnetpp_340B.trace.xz
CPU 0 Bimodal branch predictor
Basic BTB sets: 1024 ways: 8 indirect buffer size: 4096 RAS size: 64
Initialize Hawkeye state
Heartbeat CPU 0 instructions: 10000002 cycles: 2500207 heartbeat IPC: 3.99967 cumulative IPC: 3.99967 (Simulation time: 0 hr 0 min 38 sec) 

Warmup complete CPU 0 instructions: 10000002 cycles: 2500207 (Simulation time: 0 hr 0 min 38 sec) 

Heartbeat CPU 0 instructions: 20000000 cycles: 28103037 heartbeat IPC: 0.390582 cumulative IPC: 0.390582 (Simulation time: 0 hr 2 min 8 sec) 
Heartbeat CPU 0 instructions: 30000002 cycles: 53387591 heartbeat IPC: 0.395498 cumulative IPC: 0.393025 (Simulation time: 0 hr 3 min 35 sec) 
Heartbeat CPU 0 instructions: 40000000 cycles: 78292142 heartbeat IPC: 0.401533 cumulative IPC: 0.39582 (Simulation time: 0 hr 4 min 59 sec) 
Heartbeat CPU 0 instructions: 50000002 cycles: 103319952 heartbeat IPC: 0.399556 cumulative IPC: 0.396748 (Simulation time: 0 hr 6 min 21 sec) 
Heartbeat CPU 0 instructions: 60000001 cycles: 128968466 heartbeat IPC: 0.389886 cumulative IPC: 0.395356 (Simulation time: 0 hr 7 min 49 sec) 
Heartbeat CPU 0 instructions: 70000003 cycles: 154650658 heartbeat IPC: 0.389375 cumulative IPC: 0.394347 (Simulation time: 0 hr 9 min 9 sec) 
Heartbeat CPU 0 instructions: 80000003 cycles: 181201780 heartbeat IPC: 0.376632 cumulative IPC: 0.391715 (Simulation time: 0 hr 10 min 36 sec) 
Heartbeat CPU 0 instructions: 90000000 cycles: 207295489 heartbeat IPC: 0.383234 cumulative IPC: 0.390634 (Simulation time: 0 hr 11 min 58 sec) 
Heartbeat CPU 0 instructions: 100000000 cycles: 233633815 heartbeat IPC: 0.379675 cumulative IPC: 0.389385 (Simulation time: 0 hr 13 min 25 sec) 
Heartbeat CPU 0 instructions: 110000000 cycles: 258787898 heartbeat IPC: 0.39755 cumulative IPC: 0.390186 (Simulation time: 0 hr 14 min 49 sec) 
Finished CPU 0 instructions: 100000000 cycles: 256287693 cumulative IPC: 0.390187 (Simulation time: 0 hr 14 min 49 sec) 

ChampSim completed all CPUs

Region of Interest Statistics

CPU 0 cumulative IPC: 0.390187 instructions: 100000000 cycles: 256287693
cpu0_DTLB TOTAL     ACCESS:   23840195  HIT:   21943072  MISS:    1897123
cpu0_DTLB LOAD      ACCESS:   13871287  HIT:   12290082  MISS:    1581205
cpu0_DTLB RFO       ACCESS:    9968908  HIT:    9652990  MISS:     315918
cpu0_DTLB PREFETCH  ACCESS:          0  HIT:          0  MISS:          0
cpu0_DTLB WRITEBACK ACCESS:          0  HIT:          0  MISS:          0
cpu0_DTLB TRANSLATION ACCESS:          0  HIT:          0  MISS:          0
cpu0_DTLB PREFETCH  REQUESTED:          0  ISSUED:          0  USEFUL:          0  USELESS:          0
cpu0_DTLB AVERAGE MISS LATENCY: 13.16 cycles
cpu0_ITLB TOTAL     ACCESS:   11128509  HIT:   11093142  MISS:      35367
cpu0_ITLB LOAD      ACCESS:   11128509  HIT:   11093142  MISS:      35367
cpu0_ITLB RFO       ACCESS:          0  HIT:          0  MISS:          0
cpu0_ITLB PREFETCH  ACCESS:          0  HIT:          0  MISS:          0
cpu0_ITLB WRITEBACK ACCESS:          0  HIT:          0  MISS:          0
cpu0_ITLB TRANSLATION ACCESS:          0  HIT:          0  MISS:          0
cpu0_ITLB PREFETCH  REQUESTED:          0  ISSUED:          0  USEFUL:          0  USELESS:          0
cpu0_ITLB AVERAGE MISS LATENCY: 9.27995 cycles
cpu0_L1I TOTAL     ACCESS:    8347734  HIT:    8341381  MISS:       6353
cpu0_L1I LOAD      ACCESS:    8347734  HIT:    8341381  MISS:       6353
cpu0_L1I RFO       ACCESS:          0  HIT:          0  MISS:          0
cpu0_L1I PREFETCH  ACCESS:          0  HIT:          0  MISS:          0
cpu0_L1I WRITEBACK ACCESS:          0  HIT:          0  MISS:          0
cpu0_L1I TRANSLATION ACCESS:          0  HIT:          0  MISS:          0
cpu0_L1I PREFETCH  REQUESTED:          0  ISSUED:          0  USEFUL:          0  USELESS:          0
cpu0_L1I AVERAGE MISS LATENCY: 56.2314 cycles
cpu0_STLB TOTAL     ACCESS:    1932490  HIT:    1457297  MISS:     475193
cpu0_STLB LOAD      ACCESS:    1616572  HIT:    1262684  MISS:     353888
cpu0_STLB RFO       ACCESS:     315918  HIT:     194613  MISS:     121305
cpu0_STLB PREFETCH  ACCESS:          0  HIT:          0  MISS:          0
cpu0_STLB WRITEBACK ACCESS:          0  HIT:          0  MISS:          0
cpu0_STLB TRANSLATION ACCESS:          0  HIT:          0  MISS:          0
cpu0_STLB PREFETCH  REQUESTED:          0  ISSUED:          0  USEFUL:          0  USELESS:          0
cpu0_STLB AVERAGE MISS LATENCY: 16.1584 cycles
cpu0_L1D TOTAL     ACCESS:   31455977  HIT:   28958073  MISS:    2497904
cpu0_L1D LOAD      ACCESS:   15710980  HIT:   13528181  MISS:    2182799
cpu0_L1D RFO       ACCESS:   15304600  HIT:   14993999  MISS:     310601
cpu0_L1D PREFETCH  ACCESS:          0  HIT:          0  MISS:          0
cpu0_L1D WRITEBACK ACCESS:          0  HIT:          0  MISS:          0
cpu0_L1D TRANSLATION ACCESS:     440397  HIT:     435893  MISS:       4504
cpu0_L1D PREFETCH  REQUESTED:          0  ISSUED:          0  USEFUL:          0  USELESS:          0
cpu0_L1D AVERAGE MISS LATENCY: 143.875 cycles
cpu0_L2C TOTAL     ACCESS:    3581369  HIT:    1431368  MISS:    2150001
cpu0_L2C LOAD      ACCESS:    2189113  HIT:     330896  MISS:    1858217
cpu0_L2C RFO       ACCESS:     310601  HIT:      22189  MISS:     288412
cpu0_L2C PREFETCH  ACCESS:          0  HIT:          0  MISS:          0
cpu0_L2C WRITEBACK ACCESS:    1077151  HIT:    1074877  MISS:       2274
cpu0_L2C TRANSLATION ACCESS:       4504  HIT:       3406  MISS:       1098
cpu0_L2C PREFETCH  REQUESTED:          0  ISSUED:          0  USEFUL:          0  USELESS:          0
cpu0_L2C AVERAGE MISS LATENCY: 154.352 cycles
LLC TOTAL     ACCESS:    3079086  HIT:    1059435  MISS:    2019651
LLC LOAD      ACCESS:    1858216  HIT:     426625  MISS:    1431591
LLC RFO       ACCESS:     288412  HIT:      74899  MISS:     213513
LLC PREFETCH  ACCESS:          0  HIT:          0  MISS:          0
LLC WRITEBACK ACCESS:     931360  HIT:     557214  MISS:     374146
LLC TRANSLATION ACCESS:       1098  HIT:        697  MISS:        401
LLC PREFETCH  REQUESTED:          0  ISSUED:          0  USEFUL:          0  USELESS:          0
LLC AVERAGE MISS LATENCY: 141.982 cycles
OPTgen accesses: 36913
OPTgen hits: 14609
OPTgen hit rate: 39.5768



DRAM Statistics
 CHANNEL 0
 RQ ROW_BUFFER_HIT:      89946  ROW_BUFFER_MISS:    1555458
 DBUS AVG_CONGESTED_CYCLE:    3.92397
 WQ ROW_BUFFER_HIT:     172733  ROW_BUFFER_MISS:     531285  FULL:          0


CPU 0 Branch Prediction Accuracy: 94.4212% MPKI: 13.4017 Average ROB Occupancy at Mispredict: 52.0746
Branch type MPKI
BRANCH_DIRECT_JUMP: 0.00017
BRANCH_INDIRECT: 0.04543
BRANCH_CONDITIONAL: 13.2857
BRANCH_DIRECT_CALL: 8e-05
BRANCH_INDIRECT_CALL: 0.04734
BRANCH_RETURN: 0.02301

