
*** ChampSim Multicore Out-of-Order Simulator ***

Warmup Instructions: 10000000
Simulation Instructions: 100000000
Number of CPUs: 1
Off-chip DRAM Size: 4 GiB Channels: 1 Width: 64-bit Data Rate: 3200 MT/s

VirtualMemory physical capacity: 8588881920 num_ppages: 2096895
VirtualMemory page size: 4096 log2_page_size: 12

CPU 0 runs /datasets/cs240c-wi22-a00-public/data/Assignment2/lbm_94B.trace.xz
CPU 0 Bimodal branch predictor
Basic BTB sets: 1024 ways: 8 indirect buffer size: 4096 RAS size: 64
Initialize Hawkeye state
Heartbeat CPU 0 instructions: 10000000 cycles: 2544767 heartbeat IPC: 3.92963 cumulative IPC: 3.92963 (Simulation time: 0 hr 0 min 31 sec) 

Warmup complete CPU 0 instructions: 10000004 cycles: 2544768 (Simulation time: 0 hr 0 min 31 sec) 

Heartbeat CPU 0 instructions: 20000000 cycles: 36615929 heartbeat IPC: 0.293503 cumulative IPC: 0.293503 (Simulation time: 0 hr 3 min 11 sec) 
Heartbeat CPU 0 instructions: 30000004 cycles: 70264959 heartbeat IPC: 0.297186 cumulative IPC: 0.295333 (Simulation time: 0 hr 5 min 49 sec) 
Heartbeat CPU 0 instructions: 40000000 cycles: 102991726 heartbeat IPC: 0.30556 cumulative IPC: 0.298665 (Simulation time: 0 hr 8 min 24 sec) 
Heartbeat CPU 0 instructions: 50000001 cycles: 135392553 heartbeat IPC: 0.308634 cumulative IPC: 0.301096 (Simulation time: 0 hr 10 min 52 sec) 
Heartbeat CPU 0 instructions: 60000003 cycles: 166935348 heartbeat IPC: 0.31703 cumulative IPC: 0.304154 (Simulation time: 0 hr 13 min 13 sec) 
Heartbeat CPU 0 instructions: 70000004 cycles: 197840667 heartbeat IPC: 0.323569 cumulative IPC: 0.307226 (Simulation time: 0 hr 15 min 35 sec) 
Heartbeat CPU 0 instructions: 80000003 cycles: 228763094 heartbeat IPC: 0.32339 cumulative IPC: 0.309436 (Simulation time: 0 hr 18 min 1 sec) 
Heartbeat CPU 0 instructions: 90000003 cycles: 259467815 heartbeat IPC: 0.325683 cumulative IPC: 0.311377 (Simulation time: 0 hr 20 min 21 sec) 
Heartbeat CPU 0 instructions: 100000001 cycles: 290264598 heartbeat IPC: 0.324709 cumulative IPC: 0.312804 (Simulation time: 0 hr 22 min 40 sec) 
Heartbeat CPU 0 instructions: 110000003 cycles: 322246729 heartbeat IPC: 0.312675 cumulative IPC: 0.312791 (Simulation time: 0 hr 24 min 56 sec) 
Finished CPU 0 instructions: 100000004 cycles: 319701962 cumulative IPC: 0.312791 (Simulation time: 0 hr 24 min 56 sec) 

ChampSim completed all CPUs

Region of Interest Statistics

CPU 0 cumulative IPC: 0.312791 instructions: 100000004 cycles: 319701962
cpu0_DTLB TOTAL     ACCESS:   13208303  HIT:   13160551  MISS:      47752
cpu0_DTLB LOAD      ACCESS:    6751483  HIT:    6739535  MISS:      11948
cpu0_DTLB RFO       ACCESS:    6456820  HIT:    6421016  MISS:      35804
cpu0_DTLB PREFETCH  ACCESS:          0  HIT:          0  MISS:          0
cpu0_DTLB WRITEBACK ACCESS:          0  HIT:          0  MISS:          0
cpu0_DTLB TRANSLATION ACCESS:          0  HIT:          0  MISS:          0
cpu0_DTLB PREFETCH  REQUESTED:          0  ISSUED:          0  USEFUL:          0  USELESS:          0
cpu0_DTLB AVERAGE MISS LATENCY: 228.945 cycles
cpu0_ITLB TOTAL     ACCESS:     123375  HIT:     123375  MISS:          0
cpu0_ITLB LOAD      ACCESS:     123375  HIT:     123375  MISS:          0
cpu0_ITLB RFO       ACCESS:          0  HIT:          0  MISS:          0
cpu0_ITLB PREFETCH  ACCESS:          0  HIT:          0  MISS:          0
cpu0_ITLB WRITEBACK ACCESS:          0  HIT:          0  MISS:          0
cpu0_ITLB TRANSLATION ACCESS:          0  HIT:          0  MISS:          0
cpu0_ITLB PREFETCH  REQUESTED:          0  ISSUED:          0  USEFUL:          0  USELESS:          0
cpu0_ITLB AVERAGE MISS LATENCY: -nan cycles
cpu0_STLB TOTAL     ACCESS:      47752  HIT:          0  MISS:      47752
cpu0_STLB LOAD      ACCESS:      11948  HIT:          0  MISS:      11948
cpu0_STLB RFO       ACCESS:      35804  HIT:          0  MISS:      35804
cpu0_STLB PREFETCH  ACCESS:          0  HIT:          0  MISS:          0
cpu0_STLB WRITEBACK ACCESS:          0  HIT:          0  MISS:          0
cpu0_STLB TRANSLATION ACCESS:          0  HIT:          0  MISS:          0
cpu0_STLB PREFETCH  REQUESTED:          0  ISSUED:          0  USEFUL:          0  USELESS:          0
cpu0_STLB AVERAGE MISS LATENCY: 219.945 cycles
cpu0_L1D TOTAL     ACCESS:   14655065  HIT:    9616532  MISS:    5038533
cpu0_L1D LOAD      ACCESS:    4302227  HIT:    3538753  MISS:     763474
cpu0_L1D RFO       ACCESS:   10305086  HIT:    6030074  MISS:    4275012
cpu0_L1D PREFETCH  ACCESS:          0  HIT:          0  MISS:          0
cpu0_L1D WRITEBACK ACCESS:          0  HIT:          0  MISS:          0
cpu0_L1D TRANSLATION ACCESS:      47752  HIT:      47705  MISS:         47
cpu0_L1D PREFETCH  REQUESTED:          0  ISSUED:          0  USEFUL:          0  USELESS:          0
cpu0_L1D AVERAGE MISS LATENCY: 402.547 cycles
cpu0_L2C TOTAL     ACCESS:    9313544  HIT:    6258414  MISS:    3055130
cpu0_L2C LOAD      ACCESS:     763474  HIT:          2  MISS:     763472
cpu0_L2C RFO       ACCESS:    4275012  HIT:    1983500  MISS:    2291512
cpu0_L2C PREFETCH  ACCESS:          0  HIT:          0  MISS:          0
cpu0_L2C WRITEBACK ACCESS:    4275011  HIT:    4274912  MISS:         99
cpu0_L2C TRANSLATION ACCESS:         47  HIT:          0  MISS:         47
cpu0_L2C PREFETCH  REQUESTED:          0  ISSUED:          0  USEFUL:          0  USELESS:          0
cpu0_L2C AVERAGE MISS LATENCY: 644.249 cycles
LLC TOTAL     ACCESS:    5346820  HIT:    1639682  MISS:    3707138
LLC LOAD      ACCESS:     763472  HIT:         32  MISS:     763440
LLC RFO       ACCESS:    2291512  HIT:     571662  MISS:    1719850
LLC PREFETCH  ACCESS:          0  HIT:          0  MISS:          0
LLC WRITEBACK ACCESS:    2291789  HIT:    1067977  MISS:    1223812
LLC TRANSLATION ACCESS:         47  HIT:         11  MISS:         36
LLC PREFETCH  REQUESTED:          0  ISSUED:          0  USEFUL:          0  USELESS:          0
LLC AVERAGE MISS LATENCY: 513.633 cycles
OPTgen accesses: 53123
OPTgen hits: 13452
OPTgen hit rate: 25.3224



DRAM Statistics
 CHANNEL 0
 RQ ROW_BUFFER_HIT:      39108  ROW_BUFFER_MISS:    2443870
 DBUS AVG_CONGESTED_CYCLE:    3.99351
 WQ ROW_BUFFER_HIT:      21436  ROW_BUFFER_MISS:    1930251  FULL:         92


CPU 0 Branch Prediction Accuracy: 99.132% MPKI: 0.10209 Average ROB Occupancy at Mispredict: 173.661
Branch type MPKI
BRANCH_DIRECT_JUMP: 0
BRANCH_INDIRECT: 0
BRANCH_CONDITIONAL: 0.10209
BRANCH_DIRECT_CALL: 0
BRANCH_INDIRECT_CALL: 0
BRANCH_RETURN: 0

