
*** ChampSim Multicore Out-of-Order Simulator ***

Warmup Instructions: 10000000
Simulation Instructions: 100000000
Number of CPUs: 1
Off-chip DRAM Size: 4 GiB Channels: 1 Width: 64-bit Data Rate: 3200 MT/s

VirtualMemory physical capacity: 8588881920 num_ppages: 2096895
VirtualMemory page size: 4096 log2_page_size: 12

CPU 0 runs /datasets/cs240c-wi22-a00-public/data/Assignment2/milc_360B.trace.xz
CPU 0 Bimodal branch predictor
Basic BTB sets: 1024 ways: 8 indirect buffer size: 4096 RAS size: 64
Initialize Hawkeye state
Heartbeat CPU 0 instructions: 10000001 cycles: 2500103 heartbeat IPC: 3.99984 cumulative IPC: 3.99984 (Simulation time: 0 hr 0 min 33 sec) 

Warmup complete CPU 0 instructions: 10000001 cycles: 2500103 (Simulation time: 0 hr 0 min 33 sec) 

Heartbeat CPU 0 instructions: 20000000 cycles: 20110055 heartbeat IPC: 0.567861 cumulative IPC: 0.567861 (Simulation time: 0 hr 2 min 23 sec) 
Heartbeat CPU 0 instructions: 30000004 cycles: 37665835 heartbeat IPC: 0.569613 cumulative IPC: 0.568736 (Simulation time: 0 hr 4 min 14 sec) 
Heartbeat CPU 0 instructions: 40000001 cycles: 55198721 heartbeat IPC: 0.570357 cumulative IPC: 0.569275 (Simulation time: 0 hr 6 min 3 sec) 
Heartbeat CPU 0 instructions: 50000001 cycles: 75939358 heartbeat IPC: 0.482145 cumulative IPC: 0.544668 (Simulation time: 0 hr 8 min 10 sec) 
Heartbeat CPU 0 instructions: 60000003 cycles: 94675714 heartbeat IPC: 0.533722 cumulative IPC: 0.542443 (Simulation time: 0 hr 9 min 41 sec) 
Heartbeat CPU 0 instructions: 70000000 cycles: 114013024 heartbeat IPC: 0.517135 cumulative IPC: 0.538054 (Simulation time: 0 hr 11 min 12 sec) 
Heartbeat CPU 0 instructions: 80000000 cycles: 131039027 heartbeat IPC: 0.587337 cumulative IPC: 0.544582 (Simulation time: 0 hr 12 min 43 sec) 
Heartbeat CPU 0 instructions: 90000000 cycles: 147232880 heartbeat IPC: 0.617518 cumulative IPC: 0.552743 (Simulation time: 0 hr 14 min 13 sec) 
Heartbeat CPU 0 instructions: 100000002 cycles: 163455988 heartbeat IPC: 0.616405 cumulative IPC: 0.559159 (Simulation time: 0 hr 15 min 37 sec) 
Heartbeat CPU 0 instructions: 110000000 cycles: 179776206 heartbeat IPC: 0.612737 cumulative IPC: 0.564092 (Simulation time: 0 hr 17 min 0 sec) 
Finished CPU 0 instructions: 100000004 cycles: 177276104 cumulative IPC: 0.564092 (Simulation time: 0 hr 17 min 0 sec) 

ChampSim completed all CPUs

Region of Interest Statistics

CPU 0 cumulative IPC: 0.564092 instructions: 100000004 cycles: 177276104
cpu0_DTLB TOTAL     ACCESS:   15529475  HIT:   15314725  MISS:     214750
cpu0_DTLB LOAD      ACCESS:    9103616  HIT:    8891084  MISS:     212532
cpu0_DTLB RFO       ACCESS:    6425859  HIT:    6423641  MISS:       2218
cpu0_DTLB PREFETCH  ACCESS:          0  HIT:          0  MISS:          0
cpu0_DTLB WRITEBACK ACCESS:          0  HIT:          0  MISS:          0
cpu0_DTLB TRANSLATION ACCESS:          0  HIT:          0  MISS:          0
cpu0_DTLB PREFETCH  REQUESTED:          0  ISSUED:          0  USEFUL:          0  USELESS:          0
cpu0_DTLB AVERAGE MISS LATENCY: 83.8103 cycles
cpu0_ITLB TOTAL     ACCESS:    2730847  HIT:    2730844  MISS:          3
cpu0_ITLB LOAD      ACCESS:    2730847  HIT:    2730844  MISS:          3
cpu0_ITLB RFO       ACCESS:          0  HIT:          0  MISS:          0
cpu0_ITLB PREFETCH  ACCESS:          0  HIT:          0  MISS:          0
cpu0_ITLB WRITEBACK ACCESS:          0  HIT:          0  MISS:          0
cpu0_ITLB TRANSLATION ACCESS:          0  HIT:          0  MISS:          0
cpu0_ITLB PREFETCH  REQUESTED:          0  ISSUED:          0  USEFUL:          0  USELESS:          0
cpu0_ITLB AVERAGE MISS LATENCY: 518.667 cycles
cpu0_L1I TOTAL     ACCESS:    6947349  HIT:    6947321  MISS:         28
cpu0_L1I LOAD      ACCESS:    6947349  HIT:    6947321  MISS:         28
cpu0_L1I RFO       ACCESS:          0  HIT:          0  MISS:          0
cpu0_L1I PREFETCH  ACCESS:          0  HIT:          0  MISS:          0
cpu0_L1I WRITEBACK ACCESS:          0  HIT:          0  MISS:          0
cpu0_L1I TRANSLATION ACCESS:          0  HIT:          0  MISS:          0
cpu0_L1I PREFETCH  REQUESTED:          0  ISSUED:          0  USEFUL:          0  USELESS:          0
cpu0_L1I AVERAGE MISS LATENCY: 239.214 cycles
cpu0_STLB TOTAL     ACCESS:     214753  HIT:        130  MISS:     214623
cpu0_STLB LOAD      ACCESS:     212535  HIT:        101  MISS:     212434
cpu0_STLB RFO       ACCESS:       2218  HIT:         29  MISS:       2189
cpu0_STLB PREFETCH  ACCESS:          0  HIT:          0  MISS:          0
cpu0_STLB WRITEBACK ACCESS:          0  HIT:          0  MISS:          0
cpu0_STLB TRANSLATION ACCESS:          0  HIT:          0  MISS:          0
cpu0_STLB PREFETCH  REQUESTED:          0  ISSUED:          0  USEFUL:          0  USELESS:          0
cpu0_STLB AVERAGE MISS LATENCY: 74.8605 cycles
cpu0_L1D TOTAL     ACCESS:   24598584  HIT:   22502193  MISS:    2096391
cpu0_L1D LOAD      ACCESS:    6424057  HIT:    4468059  MISS:    1955998
cpu0_L1D RFO       ACCESS:   17960349  HIT:   17820340  MISS:     140009
cpu0_L1D PREFETCH  ACCESS:          0  HIT:          0  MISS:          0
cpu0_L1D WRITEBACK ACCESS:          0  HIT:          0  MISS:          0
cpu0_L1D TRANSLATION ACCESS:     214178  HIT:     213794  MISS:        384
cpu0_L1D PREFETCH  REQUESTED:          0  ISSUED:          0  USEFUL:          0  USELESS:          0
cpu0_L1D AVERAGE MISS LATENCY: 338.988 cycles
cpu0_L2C TOTAL     ACCESS:    2839086  HIT:     742662  MISS:    2096424
cpu0_L2C LOAD      ACCESS:    1956026  HIT:          0  MISS:    1956026
cpu0_L2C RFO       ACCESS:     140009  HIT:          0  MISS:     140009
cpu0_L2C PREFETCH  ACCESS:          0  HIT:          0  MISS:          0
cpu0_L2C WRITEBACK ACCESS:     742667  HIT:     742660  MISS:          7
cpu0_L2C TRANSLATION ACCESS:        384  HIT:          2  MISS:        382
cpu0_L2C PREFETCH  REQUESTED:          0  ISSUED:          0  USEFUL:          0  USELESS:          0
cpu0_L2C AVERAGE MISS LATENCY: 327.885 cycles
LLC TOTAL     ACCESS:    2839080  HIT:      86276  MISS:    2752804
LLC LOAD      ACCESS:    1956026  HIT:      23902  MISS:    1932124
LLC RFO       ACCESS:     140009  HIT:        109  MISS:     139900
LLC PREFETCH  ACCESS:          0  HIT:          0  MISS:          0
LLC WRITEBACK ACCESS:     742663  HIT:      62240  MISS:     680423
LLC TRANSLATION ACCESS:        382  HIT:         25  MISS:        357
LLC PREFETCH  REQUESTED:          0  ISSUED:          0  USEFUL:          0  USELESS:          0
LLC AVERAGE MISS LATENCY: 233.711 cycles
OPTgen accesses: 35230
OPTgen hits: 567
OPTgen hit rate: 1.60942



DRAM Statistics
 CHANNEL 0
 RQ ROW_BUFFER_HIT:     364123  ROW_BUFFER_MISS:    1708257
 DBUS AVG_CONGESTED_CYCLE:    3.94646
 WQ ROW_BUFFER_HIT:      39377  ROW_BUFFER_MISS:     685934  FULL:          0


CPU 0 Branch Prediction Accuracy: 99.9991% MPKI: 0.00037 Average ROB Occupancy at Mispredict: 87.5946
Branch type MPKI
BRANCH_DIRECT_JUMP: 4e-05
BRANCH_INDIRECT: 0
BRANCH_CONDITIONAL: 0.00015
BRANCH_DIRECT_CALL: 9e-05
BRANCH_INDIRECT_CALL: 0
BRANCH_RETURN: 9e-05

