
*** ChampSim Multicore Out-of-Order Simulator ***

Warmup Instructions: 10000000
Simulation Instructions: 100000000
Number of CPUs: 1
Off-chip DRAM Size: 4 GiB Channels: 1 Width: 64-bit Data Rate: 3200 MT/s

VirtualMemory physical capacity: 8588881920 num_ppages: 2096895
VirtualMemory page size: 4096 log2_page_size: 12

CPU 0 runs /datasets/cs240c-wi22-a00-public/data/Assignment2/lbm_564B.trace.xz
CPU 0 Bimodal branch predictor
Basic BTB sets: 1024 ways: 8 indirect buffer size: 4096 RAS size: 64
Initialize Hawkeye state
Heartbeat CPU 0 instructions: 10000000 cycles: 2507073 heartbeat IPC: 3.98872 cumulative IPC: 3.98872 (Simulation time: 0 hr 0 min 30 sec) 

Warmup complete CPU 0 instructions: 10000004 cycles: 2507074 (Simulation time: 0 hr 0 min 30 sec) 

Heartbeat CPU 0 instructions: 20000004 cycles: 31767298 heartbeat IPC: 0.341761 cumulative IPC: 0.341761 (Simulation time: 0 hr 2 min 55 sec) 
Heartbeat CPU 0 instructions: 30000000 cycles: 88705950 heartbeat IPC: 0.175628 cumulative IPC: 0.232022 (Simulation time: 0 hr 7 min 57 sec) 
Heartbeat CPU 0 instructions: 40000000 cycles: 117290846 heartbeat IPC: 0.349835 cumulative IPC: 0.261361 (Simulation time: 0 hr 10 min 13 sec) 
Heartbeat CPU 0 instructions: 50000000 cycles: 147471077 heartbeat IPC: 0.331343 cumulative IPC: 0.275931 (Simulation time: 0 hr 12 min 35 sec) 
Heartbeat CPU 0 instructions: 60000001 cycles: 176737509 heartbeat IPC: 0.341688 cumulative IPC: 0.286976 (Simulation time: 0 hr 14 min 50 sec) 
Heartbeat CPU 0 instructions: 70000002 cycles: 207362887 heartbeat IPC: 0.326527 cumulative IPC: 0.292889 (Simulation time: 0 hr 17 min 16 sec) 
Heartbeat CPU 0 instructions: 80000004 cycles: 238583962 heartbeat IPC: 0.320297 cumulative IPC: 0.296514 (Simulation time: 0 hr 19 min 47 sec) 
Heartbeat CPU 0 instructions: 90000003 cycles: 270687571 heartbeat IPC: 0.311491 cumulative IPC: 0.298307 (Simulation time: 0 hr 22 min 21 sec) 
Heartbeat CPU 0 instructions: 100000004 cycles: 302127772 heartbeat IPC: 0.318064 cumulative IPC: 0.30038 (Simulation time: 0 hr 24 min 53 sec) 
Heartbeat CPU 0 instructions: 110000003 cycles: 335528396 heartbeat IPC: 0.299396 cumulative IPC: 0.300281 (Simulation time: 0 hr 27 min 36 sec) 
Finished CPU 0 instructions: 100000004 cycles: 333021323 cumulative IPC: 0.300281 (Simulation time: 0 hr 27 min 36 sec) 

ChampSim completed all CPUs

Region of Interest Statistics

CPU 0 cumulative IPC: 0.300281 instructions: 100000004 cycles: 333021323
cpu0_DTLB TOTAL     ACCESS:   13896674  HIT:   13843900  MISS:      52774
cpu0_DTLB LOAD      ACCESS:    6992238  HIT:    6979039  MISS:      13199
cpu0_DTLB RFO       ACCESS:    6904436  HIT:    6864861  MISS:      39575
cpu0_DTLB PREFETCH  ACCESS:          0  HIT:          0  MISS:          0
cpu0_DTLB WRITEBACK ACCESS:          0  HIT:          0  MISS:          0
cpu0_DTLB TRANSLATION ACCESS:          0  HIT:          0  MISS:          0
cpu0_DTLB PREFETCH  REQUESTED:          0  ISSUED:          0  USEFUL:          0  USELESS:          0
cpu0_DTLB AVERAGE MISS LATENCY: 437.46 cycles
cpu0_ITLB TOTAL     ACCESS:     149920  HIT:     149919  MISS:          1
cpu0_ITLB LOAD      ACCESS:     149920  HIT:     149919  MISS:          1
cpu0_ITLB RFO       ACCESS:          0  HIT:          0  MISS:          0
cpu0_ITLB PREFETCH  ACCESS:          0  HIT:          0  MISS:          0
cpu0_ITLB WRITEBACK ACCESS:          0  HIT:          0  MISS:          0
cpu0_ITLB TRANSLATION ACCESS:          0  HIT:          0  MISS:          0
cpu0_ITLB PREFETCH  REQUESTED:          0  ISSUED:          0  USEFUL:          0  USELESS:          0
cpu0_ITLB AVERAGE MISS LATENCY: 1439 cycles
cpu0_L1I TOTAL     ACCESS:         12  HIT:          6  MISS:          6
cpu0_L1I LOAD      ACCESS:         12  HIT:          6  MISS:          6
cpu0_L1I RFO       ACCESS:          0  HIT:          0  MISS:          0
cpu0_L1I PREFETCH  ACCESS:          0  HIT:          0  MISS:          0
cpu0_L1I WRITEBACK ACCESS:          0  HIT:          0  MISS:          0
cpu0_L1I TRANSLATION ACCESS:          0  HIT:          0  MISS:          0
cpu0_L1I PREFETCH  REQUESTED:          0  ISSUED:          0  USEFUL:          0  USELESS:          0
cpu0_L1I AVERAGE MISS LATENCY: 339 cycles
cpu0_STLB TOTAL     ACCESS:      52775  HIT:          5  MISS:      52770
cpu0_STLB LOAD      ACCESS:      13200  HIT:          0  MISS:      13200
cpu0_STLB RFO       ACCESS:      39575  HIT:          5  MISS:      39570
cpu0_STLB PREFETCH  ACCESS:          0  HIT:          0  MISS:          0
cpu0_STLB WRITEBACK ACCESS:          0  HIT:          0  MISS:          0
cpu0_STLB TRANSLATION ACCESS:          0  HIT:          0  MISS:          0
cpu0_STLB PREFETCH  REQUESTED:          0  ISSUED:          0  USEFUL:          0  USELESS:          0
cpu0_STLB AVERAGE MISS LATENCY: 428.52 cycles
cpu0_L1D TOTAL     ACCESS:   15374878  HIT:    9808677  MISS:    5566201
cpu0_L1D LOAD      ACCESS:    4368356  HIT:    3524767  MISS:     843589
cpu0_L1D RFO       ACCESS:   10953767  HIT:    6231206  MISS:    4722561
cpu0_L1D PREFETCH  ACCESS:          0  HIT:          0  MISS:          0
cpu0_L1D WRITEBACK ACCESS:          0  HIT:          0  MISS:          0
cpu0_L1D TRANSLATION ACCESS:      52755  HIT:      52704  MISS:         51
cpu0_L1D PREFETCH  REQUESTED:          0  ISSUED:          0  USEFUL:          0  USELESS:          0
cpu0_L1D AVERAGE MISS LATENCY: 443.888 cycles
cpu0_L2C TOTAL     ACCESS:   10288767  HIT:    6913186  MISS:    3375581
cpu0_L2C LOAD      ACCESS:     843595  HIT:        221  MISS:     843374
cpu0_L2C RFO       ACCESS:    4722561  HIT:    2190530  MISS:    2532031
cpu0_L2C PREFETCH  ACCESS:          0  HIT:          0  MISS:          0
cpu0_L2C WRITEBACK ACCESS:    4722560  HIT:    4722435  MISS:        125
cpu0_L2C TRANSLATION ACCESS:         51  HIT:          0  MISS:         51
cpu0_L2C PREFETCH  REQUESTED:          0  ISSUED:          0  USEFUL:          0  USELESS:          0
cpu0_L2C AVERAGE MISS LATENCY: 712.505 cycles
LLC TOTAL     ACCESS:    5907528  HIT:    1651154  MISS:    4256374
LLC LOAD      ACCESS:     843374  HIT:         51  MISS:     843323
LLC RFO       ACCESS:    2532030  HIT:     632509  MISS:    1899521
LLC PREFETCH  ACCESS:          0  HIT:          0  MISS:          0
LLC WRITEBACK ACCESS:    2532073  HIT:    1018580  MISS:    1513493
LLC TRANSLATION ACCESS:         51  HIT:         14  MISS:         37
LLC PREFETCH  REQUESTED:          0  ISSUED:          0  USEFUL:          0  USELESS:          0
LLC AVERAGE MISS LATENCY: 548.409 cycles
OPTgen accesses: 57393
OPTgen hits: 15278
OPTgen hit rate: 26.62



DRAM Statistics
 CHANNEL 0
 RQ ROW_BUFFER_HIT:      50467  ROW_BUFFER_MISS:    2692297
 DBUS AVG_CONGESTED_CYCLE:    3.99513
 WQ ROW_BUFFER_HIT:      29945  ROW_BUFFER_MISS:    2155634  FULL:         65


CPU 0 Branch Prediction Accuracy: 99.0902% MPKI: 0.11542 Average ROB Occupancy at Mispredict: 182.062
Branch type MPKI
BRANCH_DIRECT_JUMP: 2e-05
BRANCH_INDIRECT: 0
BRANCH_CONDITIONAL: 0.11536
BRANCH_DIRECT_CALL: 2e-05
BRANCH_INDIRECT_CALL: 0
BRANCH_RETURN: 2e-05

