
*** ChampSim Multicore Out-of-Order Simulator ***

Warmup Instructions: 10000000
Simulation Instructions: 100000000
Number of CPUs: 1
Off-chip DRAM Size: 4 GiB Channels: 1 Width: 64-bit Data Rate: 3200 MT/s

VirtualMemory physical capacity: 8588881920 num_ppages: 2096895
VirtualMemory page size: 4096 log2_page_size: 12

CPU 0 runs /datasets/cs240c-wi22-a00-public/data/Assignment2/cactusADM_1495B.trace.xz
CPU 0 Bimodal branch predictor
Basic BTB sets: 1024 ways: 8 indirect buffer size: 4096 RAS size: 64
Initialize Hawkeye state
Heartbeat CPU 0 instructions: 10000001 cycles: 3702086 heartbeat IPC: 2.70118 cumulative IPC: 2.70118 (Simulation time: 0 hr 1 min 7 sec) 

Warmup complete CPU 0 instructions: 10000001 cycles: 3702086 (Simulation time: 0 hr 1 min 7 sec) 

Heartbeat CPU 0 instructions: 20000001 cycles: 11375749 heartbeat IPC: 1.30316 cumulative IPC: 1.30316 (Simulation time: 0 hr 2 min 53 sec) 
Heartbeat CPU 0 instructions: 30000003 cycles: 20255973 heartbeat IPC: 1.1261 cumulative IPC: 1.20818 (Simulation time: 0 hr 4 min 47 sec) 
Heartbeat CPU 0 instructions: 40000003 cycles: 29044261 heartbeat IPC: 1.13788 cumulative IPC: 1.1838 (Simulation time: 0 hr 6 min 39 sec) 
Heartbeat CPU 0 instructions: 50000000 cycles: 37706951 heartbeat IPC: 1.15438 cumulative IPC: 1.1763 (Simulation time: 0 hr 8 min 30 sec) 
Heartbeat CPU 0 instructions: 60000000 cycles: 44982693 heartbeat IPC: 1.37443 cumulative IPC: 1.21122 (Simulation time: 0 hr 10 min 13 sec) 
Heartbeat CPU 0 instructions: 70000000 cycles: 52601578 heartbeat IPC: 1.31253 cumulative IPC: 1.22701 (Simulation time: 0 hr 11 min 57 sec) 
Heartbeat CPU 0 instructions: 80000003 cycles: 61034138 heartbeat IPC: 1.18588 cumulative IPC: 1.22096 (Simulation time: 0 hr 13 min 45 sec) 
Heartbeat CPU 0 instructions: 90000002 cycles: 69530726 heartbeat IPC: 1.17694 cumulative IPC: 1.21528 (Simulation time: 0 hr 15 min 33 sec) 
Heartbeat CPU 0 instructions: 100000002 cycles: 78352789 heartbeat IPC: 1.13352 cumulative IPC: 1.20561 (Simulation time: 0 hr 17 min 25 sec) 
Heartbeat CPU 0 instructions: 110000001 cycles: 84462552 heartbeat IPC: 1.63672 cumulative IPC: 1.23823 (Simulation time: 0 hr 18 min 59 sec) 
Finished CPU 0 instructions: 100000000 cycles: 80760466 cumulative IPC: 1.23823 (Simulation time: 0 hr 18 min 59 sec) 

ChampSim completed all CPUs

Region of Interest Statistics

CPU 0 cumulative IPC: 1.23823 instructions: 100000000 cycles: 80760466
cpu0_DTLB TOTAL     ACCESS:   21523839  HIT:   19751226  MISS:    1772613
cpu0_DTLB LOAD      ACCESS:   17708476  HIT:   16499224  MISS:    1209252
cpu0_DTLB RFO       ACCESS:    3815363  HIT:    3252002  MISS:     563361
cpu0_DTLB PREFETCH  ACCESS:          0  HIT:          0  MISS:          0
cpu0_DTLB WRITEBACK ACCESS:          0  HIT:          0  MISS:          0
cpu0_DTLB TRANSLATION ACCESS:          0  HIT:          0  MISS:          0
cpu0_DTLB PREFETCH  REQUESTED:          0  ISSUED:          0  USEFUL:          0  USELESS:          0
cpu0_DTLB AVERAGE MISS LATENCY: 16.1088 cycles
cpu0_ITLB TOTAL     ACCESS:    1616208  HIT:    1616208  MISS:          0
cpu0_ITLB LOAD      ACCESS:    1616208  HIT:    1616208  MISS:          0
cpu0_ITLB RFO       ACCESS:          0  HIT:          0  MISS:          0
cpu0_ITLB PREFETCH  ACCESS:          0  HIT:          0  MISS:          0
cpu0_ITLB WRITEBACK ACCESS:          0  HIT:          0  MISS:          0
cpu0_ITLB TRANSLATION ACCESS:          0  HIT:          0  MISS:          0
cpu0_ITLB PREFETCH  REQUESTED:          0  ISSUED:          0  USEFUL:          0  USELESS:          0
cpu0_ITLB AVERAGE MISS LATENCY: -nan cycles
cpu0_L1I TOTAL     ACCESS:    8444997  HIT:    8444997  MISS:          0
cpu0_L1I LOAD      ACCESS:    8444997  HIT:    8444997  MISS:          0
cpu0_L1I RFO       ACCESS:          0  HIT:          0  MISS:          0
cpu0_L1I PREFETCH  ACCESS:          0  HIT:          0  MISS:          0
cpu0_L1I WRITEBACK ACCESS:          0  HIT:          0  MISS:          0
cpu0_L1I TRANSLATION ACCESS:          0  HIT:          0  MISS:          0
cpu0_L1I PREFETCH  REQUESTED:          0  ISSUED:          0  USEFUL:          0  USELESS:          0
cpu0_L1I AVERAGE MISS LATENCY: -nan cycles
cpu0_STLB TOTAL     ACCESS:    1772613  HIT:     905714  MISS:     866899
cpu0_STLB LOAD      ACCESS:    1209252  HIT:     648294  MISS:     560958
cpu0_STLB RFO       ACCESS:     563361  HIT:     257420  MISS:     305941
cpu0_STLB PREFETCH  ACCESS:          0  HIT:          0  MISS:          0
cpu0_STLB WRITEBACK ACCESS:          0  HIT:          0  MISS:          0
cpu0_STLB TRANSLATION ACCESS:          0  HIT:          0  MISS:          0
cpu0_STLB PREFETCH  REQUESTED:          0  ISSUED:          0  USEFUL:          0  USELESS:          0
cpu0_STLB AVERAGE MISS LATENCY: 14.4141 cycles
cpu0_L1D TOTAL     ACCESS:   37517005  HIT:   36228759  MISS:    1288246
cpu0_L1D LOAD      ACCESS:   25703227  HIT:   24667154  MISS:    1036073
cpu0_L1D RFO       ACCESS:   10947568  HIT:   10702336  MISS:     245232
cpu0_L1D PREFETCH  ACCESS:          0  HIT:          0  MISS:          0
cpu0_L1D WRITEBACK ACCESS:          0  HIT:          0  MISS:          0
cpu0_L1D TRANSLATION ACCESS:     866210  HIT:     859269  MISS:       6941
cpu0_L1D PREFETCH  REQUESTED:          0  ISSUED:          0  USEFUL:          0  USELESS:          0
cpu0_L1D AVERAGE MISS LATENCY: 263.418 cycles
cpu0_L2C TOTAL     ACCESS:    1537028  HIT:     676869  MISS:     860159
cpu0_L2C LOAD      ACCESS:    1036073  HIT:     421650  MISS:     614423
cpu0_L2C RFO       ACCESS:     245232  HIT:          0  MISS:     245232
cpu0_L2C PREFETCH  ACCESS:          0  HIT:          0  MISS:          0
cpu0_L2C WRITEBACK ACCESS:     248782  HIT:     248594  MISS:        188
cpu0_L2C TRANSLATION ACCESS:       6941  HIT:       6625  MISS:        316
cpu0_L2C PREFETCH  REQUESTED:          0  ISSUED:          0  USEFUL:          0  USELESS:          0
cpu0_L2C AVERAGE MISS LATENCY: 378.021 cycles
LLC TOTAL     ACCESS:    1105579  HIT:     325282  MISS:     780297
LLC LOAD      ACCESS:     614423  HIT:     154818  MISS:     459605
LLC RFO       ACCESS:     245232  HIT:      77139  MISS:     168093
LLC PREFETCH  ACCESS:          0  HIT:          0  MISS:          0
LLC WRITEBACK ACCESS:     245608  HIT:      93310  MISS:     152298
LLC TRANSLATION ACCESS:        316  HIT:         15  MISS:        301
LLC PREFETCH  REQUESTED:          0  ISSUED:          0  USEFUL:          0  USELESS:          0
LLC AVERAGE MISS LATENCY: 393.565 cycles
OPTgen accesses: 15004
OPTgen hits: 4662
OPTgen hit rate: 31.0717



DRAM Statistics
 CHANNEL 0
 RQ ROW_BUFFER_HIT:       5704  ROW_BUFFER_MISS:     622295
 DBUS AVG_CONGESTED_CYCLE:     3.9741
 WQ ROW_BUFFER_HIT:      18826  ROW_BUFFER_MISS:     200949  FULL:        245


CPU 0 Branch Prediction Accuracy: 97.8411% MPKI: 0.04284 Average ROB Occupancy at Mispredict: 285.497
Branch type MPKI
BRANCH_DIRECT_JUMP: 0
BRANCH_INDIRECT: 0
BRANCH_CONDITIONAL: 0.04284
BRANCH_DIRECT_CALL: 0
BRANCH_INDIRECT_CALL: 0
BRANCH_RETURN: 0

