
*** ChampSim Multicore Out-of-Order Simulator ***

Warmup Instructions: 10000000
Simulation Instructions: 100000000
Number of CPUs: 1
Off-chip DRAM Size: 4 GiB Channels: 1 Width: 64-bit Data Rate: 3200 MT/s

VirtualMemory physical capacity: 8588881920 num_ppages: 2096895
VirtualMemory page size: 4096 log2_page_size: 12

CPU 0 runs /datasets/cs240c-wi22-a00-public/data/Assignment2/wrf_1228B.trace.xz
CPU 0 Bimodal branch predictor
Basic BTB sets: 1024 ways: 8 indirect buffer size: 4096 RAS size: 64
Initialize Hawkeye state
Heartbeat CPU 0 instructions: 10000001 cycles: 3904465 heartbeat IPC: 2.56117 cumulative IPC: 2.56117 (Simulation time: 0 hr 0 min 51 sec) 

Warmup complete CPU 0 instructions: 10000001 cycles: 3904465 (Simulation time: 0 hr 0 min 51 sec) 

Heartbeat CPU 0 instructions: 20000001 cycles: 12367262 heartbeat IPC: 1.18164 cumulative IPC: 1.18164 (Simulation time: 0 hr 2 min 1 sec) 
Heartbeat CPU 0 instructions: 30000002 cycles: 23680045 heartbeat IPC: 0.883956 cumulative IPC: 1.01135 (Simulation time: 0 hr 3 min 22 sec) 
Heartbeat CPU 0 instructions: 40000004 cycles: 36509050 heartbeat IPC: 0.779484 cumulative IPC: 0.920116 (Simulation time: 0 hr 4 min 47 sec) 
Heartbeat CPU 0 instructions: 50000001 cycles: 44235501 heartbeat IPC: 1.29425 cumulative IPC: 0.991792 (Simulation time: 0 hr 5 min 45 sec) 
Heartbeat CPU 0 instructions: 60000003 cycles: 53721246 heartbeat IPC: 1.05421 cumulative IPC: 1.00368 (Simulation time: 0 hr 6 min 53 sec) 
Heartbeat CPU 0 instructions: 70000001 cycles: 64922655 heartbeat IPC: 0.892745 cumulative IPC: 0.983313 (Simulation time: 0 hr 7 min 57 sec) 
Heartbeat CPU 0 instructions: 80000004 cycles: 74632488 heartbeat IPC: 1.02988 cumulative IPC: 0.989707 (Simulation time: 0 hr 8 min 50 sec) 
Heartbeat CPU 0 instructions: 90000001 cycles: 84317483 heartbeat IPC: 1.03252 cumulative IPC: 0.994864 (Simulation time: 0 hr 9 min 43 sec) 
Heartbeat CPU 0 instructions: 100000002 cycles: 93995823 heartbeat IPC: 1.03324 cumulative IPC: 0.998986 (Simulation time: 0 hr 10 min 33 sec) 
Heartbeat CPU 0 instructions: 110000000 cycles: 103665986 heartbeat IPC: 1.03411 cumulative IPC: 1.00239 (Simulation time: 0 hr 11 min 24 sec) 
Finished CPU 0 instructions: 100000004 cycles: 99761522 cumulative IPC: 1.00239 (Simulation time: 0 hr 11 min 24 sec) 

ChampSim completed all CPUs

Region of Interest Statistics

CPU 0 cumulative IPC: 1.00239 instructions: 100000004 cycles: 99761522
cpu0_DTLB TOTAL     ACCESS:   19674793  HIT:   19578558  MISS:      96235
cpu0_DTLB LOAD      ACCESS:   17653574  HIT:   17571646  MISS:      81928
cpu0_DTLB RFO       ACCESS:    2021219  HIT:    2006912  MISS:      14307
cpu0_DTLB PREFETCH  ACCESS:          0  HIT:          0  MISS:          0
cpu0_DTLB WRITEBACK ACCESS:          0  HIT:          0  MISS:          0
cpu0_DTLB TRANSLATION ACCESS:          0  HIT:          0  MISS:          0
cpu0_DTLB PREFETCH  REQUESTED:          0  ISSUED:          0  USEFUL:          0  USELESS:          0
cpu0_DTLB AVERAGE MISS LATENCY: 20.0206 cycles
cpu0_ITLB TOTAL     ACCESS:    4196802  HIT:    4196790  MISS:         12
cpu0_ITLB LOAD      ACCESS:    4196802  HIT:    4196790  MISS:         12
cpu0_ITLB RFO       ACCESS:          0  HIT:          0  MISS:          0
cpu0_ITLB PREFETCH  ACCESS:          0  HIT:          0  MISS:          0
cpu0_ITLB WRITEBACK ACCESS:          0  HIT:          0  MISS:          0
cpu0_ITLB TRANSLATION ACCESS:          0  HIT:          0  MISS:          0
cpu0_ITLB PREFETCH  REQUESTED:          0  ISSUED:          0  USEFUL:          0  USELESS:          0
cpu0_ITLB AVERAGE MISS LATENCY: 234.083 cycles
cpu0_L1I TOTAL     ACCESS:    6679537  HIT:    6678789  MISS:        748
cpu0_L1I LOAD      ACCESS:    6679537  HIT:    6678789  MISS:        748
cpu0_L1I RFO       ACCESS:          0  HIT:          0  MISS:          0
cpu0_L1I PREFETCH  ACCESS:          0  HIT:          0  MISS:          0
cpu0_L1I WRITEBACK ACCESS:          0  HIT:          0  MISS:          0
cpu0_L1I TRANSLATION ACCESS:          0  HIT:          0  MISS:          0
cpu0_L1I PREFETCH  REQUESTED:          0  ISSUED:          0  USEFUL:          0  USELESS:          0
cpu0_L1I AVERAGE MISS LATENCY: 329.485 cycles
cpu0_STLB TOTAL     ACCESS:      96247  HIT:      86693  MISS:       9554
cpu0_STLB LOAD      ACCESS:      81940  HIT:      75032  MISS:       6908
cpu0_STLB RFO       ACCESS:      14307  HIT:      11661  MISS:       2646
cpu0_STLB PREFETCH  ACCESS:          0  HIT:          0  MISS:          0
cpu0_STLB WRITEBACK ACCESS:          0  HIT:          0  MISS:          0
cpu0_STLB TRANSLATION ACCESS:          0  HIT:          0  MISS:          0
cpu0_STLB PREFETCH  REQUESTED:          0  ISSUED:          0  USEFUL:          0  USELESS:          0
cpu0_STLB AVERAGE MISS LATENCY: 111.272 cycles
cpu0_L1D TOTAL     ACCESS:   18885350  HIT:   17526932  MISS:    1358418
cpu0_L1D LOAD      ACCESS:   14831285  HIT:   13732210  MISS:    1099075
cpu0_L1D RFO       ACCESS:    4044521  HIT:    3785964  MISS:     258557
cpu0_L1D PREFETCH  ACCESS:          0  HIT:          0  MISS:          0
cpu0_L1D WRITEBACK ACCESS:          0  HIT:          0  MISS:          0
cpu0_L1D TRANSLATION ACCESS:       9544  HIT:       8758  MISS:        786
cpu0_L1D PREFETCH  REQUESTED:          0  ISSUED:          0  USEFUL:          0  USELESS:          0
cpu0_L1D AVERAGE MISS LATENCY: 203.968 cycles
cpu0_L2C TOTAL     ACCESS:    1836362  HIT:     802921  MISS:    1033441
cpu0_L2C LOAD      ACCESS:    1099791  HIT:     287169  MISS:     812622
cpu0_L2C RFO       ACCESS:     258554  HIT:      39536  MISS:     219018
cpu0_L2C PREFETCH  ACCESS:          0  HIT:          0  MISS:          0
cpu0_L2C WRITEBACK ACCESS:     477231  HIT:     475543  MISS:       1688
cpu0_L2C TRANSLATION ACCESS:        786  HIT:        673  MISS:        113
cpu0_L2C PREFETCH  REQUESTED:          0  ISSUED:          0  USEFUL:          0  USELESS:          0
cpu0_L2C AVERAGE MISS LATENCY: 253.859 cycles
LLC TOTAL     ACCESS:    1463812  HIT:     506916  MISS:     956896
LLC LOAD      ACCESS:     812622  HIT:     183300  MISS:     629322
LLC RFO       ACCESS:     219018  HIT:      47392  MISS:     171626
LLC PREFETCH  ACCESS:          0  HIT:          0  MISS:          0
LLC WRITEBACK ACCESS:     432059  HIT:     276179  MISS:     155880
LLC TRANSLATION ACCESS:        113  HIT:         45  MISS:         68
LLC PREFETCH  REQUESTED:          0  ISSUED:          0  USEFUL:          0  USELESS:          0
LLC AVERAGE MISS LATENCY: 251.521 cycles
OPTgen accesses: 20219
OPTgen hits: 5483
OPTgen hit rate: 27.1181



DRAM Statistics
 CHANNEL 0
 RQ ROW_BUFFER_HIT:     100119  ROW_BUFFER_MISS:     700565
 DBUS AVG_CONGESTED_CYCLE:    3.92463
 WQ ROW_BUFFER_HIT:      26596  ROW_BUFFER_MISS:     257450  FULL:          0


CPU 0 Branch Prediction Accuracy: 97.4481% MPKI: 2.04611 Average ROB Occupancy at Mispredict: 259.77
Branch type MPKI
BRANCH_DIRECT_JUMP: 0.00028
BRANCH_INDIRECT: 0
BRANCH_CONDITIONAL: 2.0456
BRANCH_DIRECT_CALL: 0.00011
BRANCH_INDIRECT_CALL: 0
BRANCH_RETURN: 0.00012

