
*** ChampSim Multicore Out-of-Order Simulator ***

Warmup Instructions: 10000000
Simulation Instructions: 100000000
Number of CPUs: 1
Off-chip DRAM Size: 4 GiB Channels: 1 Width: 64-bit Data Rate: 3200 MT/s

VirtualMemory physical capacity: 8588881920 num_ppages: 2096895
VirtualMemory page size: 4096 log2_page_size: 12

CPU 0 runs /datasets/cs240c-wi22-a00-public/data/Assignment2/mcf_46B.trace.xz
CPU 0 Bimodal branch predictor
Basic BTB sets: 1024 ways: 8 indirect buffer size: 4096 RAS size: 64
Initialize Hawkeye state
Heartbeat CPU 0 instructions: 10000001 cycles: 3434378 heartbeat IPC: 2.91174 cumulative IPC: 2.91174 (Simulation time: 0 hr 0 min 50 sec) 

Warmup complete CPU 0 instructions: 10000001 cycles: 3434378 (Simulation time: 0 hr 0 min 50 sec) 

Heartbeat CPU 0 instructions: 20000001 cycles: 118190333 heartbeat IPC: 0.0871414 cumulative IPC: 0.0871414 (Simulation time: 0 hr 4 min 37 sec) 
Heartbeat CPU 0 instructions: 30000004 cycles: 227430246 heartbeat IPC: 0.0915417 cumulative IPC: 0.0892874 (Simulation time: 0 hr 8 min 14 sec) 
Heartbeat CPU 0 instructions: 40000004 cycles: 335370406 heartbeat IPC: 0.0926439 cumulative IPC: 0.0903789 (Simulation time: 0 hr 11 min 43 sec) 
Heartbeat CPU 0 instructions: 50000003 cycles: 441337167 heartbeat IPC: 0.0943692 cumulative IPC: 0.0913445 (Simulation time: 0 hr 15 min 5 sec) 
Heartbeat CPU 0 instructions: 60000000 cycles: 552863555 heartbeat IPC: 0.0896649 cumulative IPC: 0.0910035 (Simulation time: 0 hr 18 min 40 sec) 
Heartbeat CPU 0 instructions: 70000004 cycles: 664766971 heartbeat IPC: 0.0893628 cumulative IPC: 0.0907259 (Simulation time: 0 hr 22 min 16 sec) 
Heartbeat CPU 0 instructions: 80000003 cycles: 774124592 heartbeat IPC: 0.0914431 cumulative IPC: 0.0908277 (Simulation time: 0 hr 25 min 49 sec) 
Heartbeat CPU 0 instructions: 90000001 cycles: 884265732 heartbeat IPC: 0.0907926 cumulative IPC: 0.0908233 (Simulation time: 0 hr 29 min 23 sec) 
Heartbeat CPU 0 instructions: 100000001 cycles: 993484010 heartbeat IPC: 0.0915598 cumulative IPC: 0.0909045 (Simulation time: 0 hr 32 min 56 sec) 
Heartbeat CPU 0 instructions: 110000002 cycles: 1098223976 heartbeat IPC: 0.0954745 cumulative IPC: 0.0913418 (Simulation time: 0 hr 36 min 15 sec) 
Finished CPU 0 instructions: 100000001 cycles: 1094789598 cumulative IPC: 0.0913417 (Simulation time: 0 hr 36 min 15 sec) 

ChampSim completed all CPUs

Region of Interest Statistics

CPU 0 cumulative IPC: 0.0913417 instructions: 100000001 cycles: 1094789598
cpu0_DTLB TOTAL     ACCESS:   23847717  HIT:   14579218  MISS:    9268499
cpu0_DTLB LOAD      ACCESS:   20115809  HIT:   11375058  MISS:    8740751
cpu0_DTLB RFO       ACCESS:    3731908  HIT:    3204160  MISS:     527748
cpu0_DTLB PREFETCH  ACCESS:          0  HIT:          0  MISS:          0
cpu0_DTLB WRITEBACK ACCESS:          0  HIT:          0  MISS:          0
cpu0_DTLB TRANSLATION ACCESS:          0  HIT:          0  MISS:          0
cpu0_DTLB PREFETCH  REQUESTED:          0  ISSUED:          0  USEFUL:          0  USELESS:          0
cpu0_DTLB AVERAGE MISS LATENCY: 12.8168 cycles
cpu0_ITLB TOTAL     ACCESS:   12709190  HIT:   12709190  MISS:          0
cpu0_ITLB LOAD      ACCESS:   12709190  HIT:   12709190  MISS:          0
cpu0_ITLB RFO       ACCESS:          0  HIT:          0  MISS:          0
cpu0_ITLB PREFETCH  ACCESS:          0  HIT:          0  MISS:          0
cpu0_ITLB WRITEBACK ACCESS:          0  HIT:          0  MISS:          0
cpu0_ITLB TRANSLATION ACCESS:          0  HIT:          0  MISS:          0
cpu0_ITLB PREFETCH  REQUESTED:          0  ISSUED:          0  USEFUL:          0  USELESS:          0
cpu0_ITLB AVERAGE MISS LATENCY: -nan cycles
cpu0_L1I TOTAL     ACCESS:         52  HIT:         52  MISS:          0
cpu0_L1I LOAD      ACCESS:         52  HIT:         52  MISS:          0
cpu0_L1I RFO       ACCESS:          0  HIT:          0  MISS:          0
cpu0_L1I PREFETCH  ACCESS:          0  HIT:          0  MISS:          0
cpu0_L1I WRITEBACK ACCESS:          0  HIT:          0  MISS:          0
cpu0_L1I TRANSLATION ACCESS:          0  HIT:          0  MISS:          0
cpu0_L1I PREFETCH  REQUESTED:          0  ISSUED:          0  USEFUL:          0  USELESS:          0
cpu0_L1I AVERAGE MISS LATENCY: -nan cycles
cpu0_STLB TOTAL     ACCESS:    9268499  HIT:    7944956  MISS:    1323543
cpu0_STLB LOAD      ACCESS:    8740751  HIT:    7428314  MISS:    1312437
cpu0_STLB RFO       ACCESS:     527748  HIT:     516642  MISS:      11106
cpu0_STLB PREFETCH  ACCESS:          0  HIT:          0  MISS:          0
cpu0_STLB WRITEBACK ACCESS:          0  HIT:          0  MISS:          0
cpu0_STLB TRANSLATION ACCESS:          0  HIT:          0  MISS:          0
cpu0_STLB PREFETCH  REQUESTED:          0  ISSUED:          0  USEFUL:          0  USELESS:          0
cpu0_STLB AVERAGE MISS LATENCY: 26.6535 cycles
cpu0_L1D TOTAL     ACCESS:   28047237  HIT:   16270019  MISS:   11777218
cpu0_L1D LOAD      ACCESS:   21748966  HIT:   10445835  MISS:   11303131
cpu0_L1D RFO       ACCESS:    4979294  HIT:    4680492  MISS:     298802
cpu0_L1D PREFETCH  ACCESS:          0  HIT:          0  MISS:          0
cpu0_L1D WRITEBACK ACCESS:          0  HIT:          0  MISS:          0
cpu0_L1D TRANSLATION ACCESS:    1318977  HIT:    1143692  MISS:     175285
cpu0_L1D PREFETCH  REQUESTED:          0  ISSUED:          0  USEFUL:          0  USELESS:          0
cpu0_L1D AVERAGE MISS LATENCY: 259.065 cycles
cpu0_L2C TOTAL     ACCESS:   14258566  HIT:    5810996  MISS:    8447570
cpu0_L2C LOAD      ACCESS:   11302678  HIT:    3070142  MISS:    8232536
cpu0_L2C RFO       ACCESS:     298790  HIT:     121223  MISS:     177567
cpu0_L2C PREFETCH  ACCESS:          0  HIT:          0  MISS:          0
cpu0_L2C WRITEBACK ACCESS:    2481813  HIT:    2481214  MISS:        599
cpu0_L2C TRANSLATION ACCESS:     175285  HIT:     138417  MISS:      36868
cpu0_L2C PREFETCH  REQUESTED:          0  ISSUED:          0  USEFUL:          0  USELESS:          0
cpu0_L2C AVERAGE MISS LATENCY: 345.734 cycles
LLC TOTAL     ACCESS:   10352077  HIT:    3775157  MISS:    6576920
LLC LOAD      ACCESS:    8232535  HIT:    2643499  MISS:    5589036
LLC RFO       ACCESS:     177567  HIT:      82283  MISS:      95284
LLC PREFETCH  ACCESS:          0  HIT:          0  MISS:          0
LLC WRITEBACK ACCESS:    1905107  HIT:    1045921  MISS:     859186
LLC TRANSLATION ACCESS:      36868  HIT:       3454  MISS:      33414
LLC PREFETCH  REQUESTED:          0  ISSUED:          0  USEFUL:          0  USELESS:          0
LLC AVERAGE MISS LATENCY: 417.099 cycles
OPTgen accesses: 142111
OPTgen hits: 54023
OPTgen hit rate: 38.0147



DRAM Statistics
 CHANNEL 0
 RQ ROW_BUFFER_HIT:      14710  ROW_BUFFER_MISS:    5701906
 DBUS AVG_CONGESTED_CYCLE:    3.95768
 WQ ROW_BUFFER_HIT:      29650  ROW_BUFFER_MISS:    1373775  FULL:          0


CPU 0 Branch Prediction Accuracy: 85.442% MPKI: 39.3219 Average ROB Occupancy at Mispredict: 18.8544
Branch type MPKI
BRANCH_DIRECT_JUMP: 0
BRANCH_INDIRECT: 0
BRANCH_CONDITIONAL: 39.3219
BRANCH_DIRECT_CALL: 0
BRANCH_INDIRECT_CALL: 0
BRANCH_RETURN: 0

