
*** ChampSim Multicore Out-of-Order Simulator ***

Warmup Instructions: 10000000
Simulation Instructions: 100000000
Number of CPUs: 1
Off-chip DRAM Size: 4 GiB Channels: 1 Width: 64-bit Data Rate: 3200 MT/s

VirtualMemory physical capacity: 8588881920 num_ppages: 2096895
VirtualMemory page size: 4096 log2_page_size: 12

CPU 0 runs /datasets/cs240c-wi22-a00-public/data/Assignment2/milc_744B.trace.xz
CPU 0 Bimodal branch predictor
Basic BTB sets: 1024 ways: 8 indirect buffer size: 4096 RAS size: 64
Initialize Hawkeye state
Heartbeat CPU 0 instructions: 10000000 cycles: 2597395 heartbeat IPC: 3.85001 cumulative IPC: 3.85001 (Simulation time: 0 hr 0 min 40 sec) 

Warmup complete CPU 0 instructions: 10000005 cycles: 2597401 (Simulation time: 0 hr 0 min 40 sec) 

Heartbeat CPU 0 instructions: 20000003 cycles: 16285073 heartbeat IPC: 0.730584 cumulative IPC: 0.730584 (Simulation time: 0 hr 1 min 52 sec) 
Heartbeat CPU 0 instructions: 30000000 cycles: 30022773 heartbeat IPC: 0.727924 cumulative IPC: 0.729252 (Simulation time: 0 hr 3 min 4 sec) 
Heartbeat CPU 0 instructions: 40000001 cycles: 43777601 heartbeat IPC: 0.727018 cumulative IPC: 0.728505 (Simulation time: 0 hr 4 min 18 sec) 
Heartbeat CPU 0 instructions: 50000000 cycles: 57566137 heartbeat IPC: 0.72524 cumulative IPC: 0.727686 (Simulation time: 0 hr 5 min 31 sec) 
Heartbeat CPU 0 instructions: 60000000 cycles: 71290987 heartbeat IPC: 0.728605 cumulative IPC: 0.72787 (Simulation time: 0 hr 6 min 43 sec) 
Heartbeat CPU 0 instructions: 70000002 cycles: 85024211 heartbeat IPC: 0.728161 cumulative IPC: 0.727918 (Simulation time: 0 hr 7 min 55 sec) 
Heartbeat CPU 0 instructions: 80000003 cycles: 98699742 heartbeat IPC: 0.731233 cumulative IPC: 0.72839 (Simulation time: 0 hr 9 min 8 sec) 
Heartbeat CPU 0 instructions: 90000002 cycles: 112383923 heartbeat IPC: 0.730771 cumulative IPC: 0.728687 (Simulation time: 0 hr 10 min 21 sec) 
Heartbeat CPU 0 instructions: 100000002 cycles: 146636898 heartbeat IPC: 0.291945 cumulative IPC: 0.624829 (Simulation time: 0 hr 16 min 36 sec) 
Heartbeat CPU 0 instructions: 110000004 cycles: 156999174 heartbeat IPC: 0.965039 cumulative IPC: 0.647661 (Simulation time: 0 hr 17 min 39 sec) 
Finished CPU 0 instructions: 100000004 cycles: 154401774 cumulative IPC: 0.647661 (Simulation time: 0 hr 17 min 39 sec) 

ChampSim completed all CPUs

Region of Interest Statistics

CPU 0 cumulative IPC: 0.647661 instructions: 100000004 cycles: 154401774
cpu0_DTLB TOTAL     ACCESS:   13558334  HIT:   13423550  MISS:     134784
cpu0_DTLB LOAD      ACCESS:   10516465  HIT:   10388308  MISS:     128157
cpu0_DTLB RFO       ACCESS:    3041869  HIT:    3035242  MISS:       6627
cpu0_DTLB PREFETCH  ACCESS:          0  HIT:          0  MISS:          0
cpu0_DTLB WRITEBACK ACCESS:          0  HIT:          0  MISS:          0
cpu0_DTLB TRANSLATION ACCESS:          0  HIT:          0  MISS:          0
cpu0_DTLB PREFETCH  REQUESTED:          0  ISSUED:          0  USEFUL:          0  USELESS:          0
cpu0_DTLB AVERAGE MISS LATENCY: 148.047 cycles
cpu0_ITLB TOTAL     ACCESS:    8135550  HIT:    8135545  MISS:          5
cpu0_ITLB LOAD      ACCESS:    8135550  HIT:    8135545  MISS:          5
cpu0_ITLB RFO       ACCESS:          0  HIT:          0  MISS:          0
cpu0_ITLB PREFETCH  ACCESS:          0  HIT:          0  MISS:          0
cpu0_ITLB WRITEBACK ACCESS:          0  HIT:          0  MISS:          0
cpu0_ITLB TRANSLATION ACCESS:          0  HIT:          0  MISS:          0
cpu0_ITLB PREFETCH  REQUESTED:          0  ISSUED:          0  USEFUL:          0  USELESS:          0
cpu0_ITLB AVERAGE MISS LATENCY: 219.2 cycles
cpu0_L1I TOTAL     ACCESS:     365359  HIT:     365312  MISS:         47
cpu0_L1I LOAD      ACCESS:     365359  HIT:     365312  MISS:         47
cpu0_L1I RFO       ACCESS:          0  HIT:          0  MISS:          0
cpu0_L1I PREFETCH  ACCESS:          0  HIT:          0  MISS:          0
cpu0_L1I WRITEBACK ACCESS:          0  HIT:          0  MISS:          0
cpu0_L1I TRANSLATION ACCESS:          0  HIT:          0  MISS:          0
cpu0_L1I PREFETCH  REQUESTED:          0  ISSUED:          0  USEFUL:          0  USELESS:          0
cpu0_L1I AVERAGE MISS LATENCY: 342 cycles
cpu0_STLB TOTAL     ACCESS:     134789  HIT:       2588  MISS:     132201
cpu0_STLB LOAD      ACCESS:     128162  HIT:       2578  MISS:     125584
cpu0_STLB RFO       ACCESS:       6627  HIT:         10  MISS:       6617
cpu0_STLB PREFETCH  ACCESS:          0  HIT:          0  MISS:          0
cpu0_STLB WRITEBACK ACCESS:          0  HIT:          0  MISS:          0
cpu0_STLB TRANSLATION ACCESS:          0  HIT:          0  MISS:          0
cpu0_STLB PREFETCH  REQUESTED:          0  ISSUED:          0  USEFUL:          0  USELESS:          0
cpu0_STLB AVERAGE MISS LATENCY: 141.761 cycles
cpu0_L1D TOTAL     ACCESS:   13086662  HIT:   11341725  MISS:    1744937
cpu0_L1D LOAD      ACCESS:    6798162  HIT:    5476909  MISS:    1321253
cpu0_L1D RFO       ACCESS:    6157564  HIT:    5734264  MISS:     423300
cpu0_L1D PREFETCH  ACCESS:          0  HIT:          0  MISS:          0
cpu0_L1D WRITEBACK ACCESS:          0  HIT:          0  MISS:          0
cpu0_L1D TRANSLATION ACCESS:     130936  HIT:     130552  MISS:        384
cpu0_L1D PREFETCH  REQUESTED:          0  ISSUED:          0  USEFUL:          0  USELESS:          0
cpu0_L1D AVERAGE MISS LATENCY: 417.879 cycles
cpu0_L2C TOTAL     ACCESS:    2446394  HIT:     701423  MISS:    1744971
cpu0_L2C LOAD      ACCESS:    1321300  HIT:          0  MISS:    1321300
cpu0_L2C RFO       ACCESS:     423300  HIT:          0  MISS:     423300
cpu0_L2C PREFETCH  ACCESS:          0  HIT:          0  MISS:          0
cpu0_L2C WRITEBACK ACCESS:     701410  HIT:     701404  MISS:          6
cpu0_L2C TRANSLATION ACCESS:        384  HIT:         19  MISS:        365
cpu0_L2C PREFETCH  REQUESTED:          0  ISSUED:          0  USEFUL:          0  USELESS:          0
cpu0_L2C AVERAGE MISS LATENCY: 406.812 cycles
LLC TOTAL     ACCESS:    2446271  HIT:      57289  MISS:    2388982
LLC LOAD      ACCESS:    1321300  HIT:       1023  MISS:    1320277
LLC RFO       ACCESS:     423300  HIT:       2455  MISS:     420845
LLC PREFETCH  ACCESS:          0  HIT:          0  MISS:          0
LLC WRITEBACK ACCESS:     701306  HIT:      53755  MISS:     647551
LLC TRANSLATION ACCESS:        365  HIT:         56  MISS:        309
LLC PREFETCH  REQUESTED:          0  ISSUED:          0  USEFUL:          0  USELESS:          0
LLC AVERAGE MISS LATENCY: 281.806 cycles
OPTgen accesses: 29494
OPTgen hits: 236
OPTgen hit rate: 0.800163



DRAM Statistics
 CHANNEL 0
 RQ ROW_BUFFER_HIT:     185949  ROW_BUFFER_MISS:    1555480
 DBUS AVG_CONGESTED_CYCLE:    3.95668
 WQ ROW_BUFFER_HIT:      82110  ROW_BUFFER_MISS:     617686  FULL:          0


CPU 0 Branch Prediction Accuracy: 77.9348% MPKI: 4.47835 Average ROB Occupancy at Mispredict: 303.147
Branch type MPKI
BRANCH_DIRECT_JUMP: 5e-05
BRANCH_INDIRECT: 0
BRANCH_CONDITIONAL: 4.47814
BRANCH_DIRECT_CALL: 8e-05
BRANCH_INDIRECT_CALL: 0
BRANCH_RETURN: 8e-05

