
*** ChampSim Multicore Out-of-Order Simulator ***

Warmup Instructions: 10000000
Simulation Instructions: 100000000
Number of CPUs: 1
Off-chip DRAM Size: 4 GiB Channels: 1 Width: 64-bit Data Rate: 3200 MT/s

VirtualMemory physical capacity: 8588881920 num_ppages: 2096895
VirtualMemory page size: 4096 log2_page_size: 12

CPU 0 runs /datasets/cs240c-wi22-a00-public/data/Assignment2/soplex_217B.trace.xz
CPU 0 Bimodal branch predictor
Basic BTB sets: 1024 ways: 8 indirect buffer size: 4096 RAS size: 64
Initialize Hawkeye state
Heartbeat CPU 0 instructions: 10000000 cycles: 2844449 heartbeat IPC: 3.51562 cumulative IPC: 3.51562 (Simulation time: 0 hr 0 min 32 sec) 

Warmup complete CPU 0 instructions: 10000004 cycles: 2844450 (Simulation time: 0 hr 0 min 32 sec) 

Heartbeat CPU 0 instructions: 20000000 cycles: 34317463 heartbeat IPC: 0.317733 cumulative IPC: 0.317732 (Simulation time: 0 hr 2 min 4 sec) 
Heartbeat CPU 0 instructions: 30000004 cycles: 64378469 heartbeat IPC: 0.332657 cumulative IPC: 0.325023 (Simulation time: 0 hr 3 min 30 sec) 
Heartbeat CPU 0 instructions: 40000003 cycles: 95336850 heartbeat IPC: 0.323014 cumulative IPC: 0.324351 (Simulation time: 0 hr 4 min 51 sec) 
Heartbeat CPU 0 instructions: 50000000 cycles: 124189662 heartbeat IPC: 0.346587 cumulative IPC: 0.329638 (Simulation time: 0 hr 6 min 15 sec) 
Heartbeat CPU 0 instructions: 60000002 cycles: 154776869 heartbeat IPC: 0.326934 cumulative IPC: 0.329094 (Simulation time: 0 hr 7 min 40 sec) 
Heartbeat CPU 0 instructions: 70000000 cycles: 199291723 heartbeat IPC: 0.224644 cumulative IPC: 0.305425 (Simulation time: 0 hr 9 min 37 sec) 
Heartbeat CPU 0 instructions: 80000000 cycles: 231671580 heartbeat IPC: 0.308834 cumulative IPC: 0.305908 (Simulation time: 0 hr 10 min 54 sec) 
Heartbeat CPU 0 instructions: 90000002 cycles: 259617205 heartbeat IPC: 0.357838 cumulative IPC: 0.31156 (Simulation time: 0 hr 12 min 15 sec) 
Heartbeat CPU 0 instructions: 100000001 cycles: 291968061 heartbeat IPC: 0.309111 cumulative IPC: 0.311286 (Simulation time: 0 hr 13 min 48 sec) 
Heartbeat CPU 0 instructions: 110000000 cycles: 320248876 heartbeat IPC: 0.353597 cumulative IPC: 0.315055 (Simulation time: 0 hr 15 min 0 sec) 
Finished CPU 0 instructions: 100000000 cycles: 317404428 cumulative IPC: 0.315055 (Simulation time: 0 hr 15 min 0 sec) 

ChampSim completed all CPUs

Region of Interest Statistics

CPU 0 cumulative IPC: 0.315055 instructions: 100000000 cycles: 317404428
cpu0_DTLB TOTAL     ACCESS:   21862901  HIT:   20997024  MISS:     865877
cpu0_DTLB LOAD      ACCESS:   16698131  HIT:   16014658  MISS:     683473
cpu0_DTLB RFO       ACCESS:    5164770  HIT:    4982366  MISS:     182404
cpu0_DTLB PREFETCH  ACCESS:          0  HIT:          0  MISS:          0
cpu0_DTLB WRITEBACK ACCESS:          0  HIT:          0  MISS:          0
cpu0_DTLB TRANSLATION ACCESS:          0  HIT:          0  MISS:          0
cpu0_DTLB PREFETCH  REQUESTED:          0  ISSUED:          0  USEFUL:          0  USELESS:          0
cpu0_DTLB AVERAGE MISS LATENCY: 15.3655 cycles
cpu0_ITLB TOTAL     ACCESS:    8510405  HIT:    8510387  MISS:         18
cpu0_ITLB LOAD      ACCESS:    8510405  HIT:    8510387  MISS:         18
cpu0_ITLB RFO       ACCESS:          0  HIT:          0  MISS:          0
cpu0_ITLB PREFETCH  ACCESS:          0  HIT:          0  MISS:          0
cpu0_ITLB WRITEBACK ACCESS:          0  HIT:          0  MISS:          0
cpu0_ITLB TRANSLATION ACCESS:          0  HIT:          0  MISS:          0
cpu0_ITLB PREFETCH  REQUESTED:          0  ISSUED:          0  USEFUL:          0  USELESS:          0
cpu0_ITLB AVERAGE MISS LATENCY: 467.167 cycles
cpu0_L1I TOTAL     ACCESS:     356735  HIT:     356082  MISS:        653
cpu0_L1I LOAD      ACCESS:     356735  HIT:     356082  MISS:        653
cpu0_L1I RFO       ACCESS:          0  HIT:          0  MISS:          0
cpu0_L1I PREFETCH  ACCESS:          0  HIT:          0  MISS:          0
cpu0_L1I WRITEBACK ACCESS:          0  HIT:          0  MISS:          0
cpu0_L1I TRANSLATION ACCESS:          0  HIT:          0  MISS:          0
cpu0_L1I PREFETCH  REQUESTED:          0  ISSUED:          0  USEFUL:          0  USELESS:          0
cpu0_L1I AVERAGE MISS LATENCY: 317.233 cycles
cpu0_STLB TOTAL     ACCESS:     865895  HIT:     742381  MISS:     123514
cpu0_STLB LOAD      ACCESS:     683491  HIT:     569327  MISS:     114164
cpu0_STLB RFO       ACCESS:     182404  HIT:     173054  MISS:       9350
cpu0_STLB PREFETCH  ACCESS:          0  HIT:          0  MISS:          0
cpu0_STLB WRITEBACK ACCESS:          0  HIT:          0  MISS:          0
cpu0_STLB TRANSLATION ACCESS:          0  HIT:          0  MISS:          0
cpu0_STLB PREFETCH  REQUESTED:          0  ISSUED:          0  USEFUL:          0  USELESS:          0
cpu0_STLB AVERAGE MISS LATENCY: 43.5192 cycles
cpu0_L1D TOTAL     ACCESS:   18148930  HIT:   12324881  MISS:    5824049
cpu0_L1D LOAD      ACCESS:   12239111  HIT:    7244734  MISS:    4994377
cpu0_L1D RFO       ACCESS:    5789880  HIT:    4965230  MISS:     824650
cpu0_L1D PREFETCH  ACCESS:          0  HIT:          0  MISS:          0
cpu0_L1D WRITEBACK ACCESS:          0  HIT:          0  MISS:          0
cpu0_L1D TRANSLATION ACCESS:     119939  HIT:     114917  MISS:       5022
cpu0_L1D PREFETCH  REQUESTED:          0  ISSUED:          0  USEFUL:          0  USELESS:          0
cpu0_L1D AVERAGE MISS LATENCY: 198.527 cycles
cpu0_L2C TOTAL     ACCESS:    8411904  HIT:    3954679  MISS:    4457225
cpu0_L2C LOAD      ACCESS:    4994462  HIT:    1232180  MISS:    3762282
cpu0_L2C RFO       ACCESS:     824584  HIT:     130495  MISS:     694089
cpu0_L2C PREFETCH  ACCESS:          0  HIT:          0  MISS:          0
cpu0_L2C WRITEBACK ACCESS:    2587836  HIT:    2587733  MISS:        103
cpu0_L2C TRANSLATION ACCESS:       5022  HIT:       4271  MISS:        751
cpu0_L2C PREFETCH  REQUESTED:          0  ISSUED:          0  USEFUL:          0  USELESS:          0
cpu0_L2C AVERAGE MISS LATENCY: 244.842 cycles
LLC TOTAL     ACCESS:    6307956  HIT:    3323714  MISS:    2984242
LLC LOAD      ACCESS:    3762267  HIT:    1515877  MISS:    2246390
LLC RFO       ACCESS:     694087  HIT:     243600  MISS:     450487
LLC PREFETCH  ACCESS:          0  HIT:          0  MISS:          0
LLC WRITEBACK ACCESS:    1850851  HIT:    1563835  MISS:     287016
LLC TRANSLATION ACCESS:        751  HIT:        402  MISS:        349
LLC PREFETCH  REQUESTED:          0  ISSUED:          0  USEFUL:          0  USELESS:          0
LLC AVERAGE MISS LATENCY: 334.038 cycles
OPTgen accesses: 77578
OPTgen hits: 38250
OPTgen hit rate: 49.3052



DRAM Statistics
 CHANNEL 0
 RQ ROW_BUFFER_HIT:     283343  ROW_BUFFER_MISS:    2410680
 DBUS AVG_CONGESTED_CYCLE:    3.94966
 WQ ROW_BUFFER_HIT:      39353  ROW_BUFFER_MISS:     889217  FULL:     245344


CPU 0 Branch Prediction Accuracy: 93.2069% MPKI: 14.28 Average ROB Occupancy at Mispredict: 48.8863
Branch type MPKI
BRANCH_DIRECT_JUMP: 0.00099
BRANCH_INDIRECT: 0.00023
BRANCH_CONDITIONAL: 14.2767
BRANCH_DIRECT_CALL: 0.00062
BRANCH_INDIRECT_CALL: 0.00054
BRANCH_RETURN: 0.00093

