
*** ChampSim Multicore Out-of-Order Simulator ***

Warmup Instructions: 10000000
Simulation Instructions: 100000000
Number of CPUs: 1
Off-chip DRAM Size: 4 GiB Channels: 1 Width: 64-bit Data Rate: 3200 MT/s

VirtualMemory physical capacity: 8588881920 num_ppages: 2096895
VirtualMemory page size: 4096 log2_page_size: 12

CPU 0 runs /datasets/cs240c-wi22-a00-public/data/Assignment2/wrf_1212B.trace.xz
CPU 0 Bimodal branch predictor
Basic BTB sets: 1024 ways: 8 indirect buffer size: 4096 RAS size: 64
Initialize Hawkeye state
Heartbeat CPU 0 instructions: 10000004 cycles: 2552145 heartbeat IPC: 3.91827 cumulative IPC: 3.91827 (Simulation time: 0 hr 0 min 35 sec) 

Warmup complete CPU 0 instructions: 10000004 cycles: 2552145 (Simulation time: 0 hr 0 min 35 sec) 

Heartbeat CPU 0 instructions: 20000000 cycles: 9018758 heartbeat IPC: 1.5464 cumulative IPC: 1.5464 (Simulation time: 0 hr 1 min 30 sec) 
Heartbeat CPU 0 instructions: 30000002 cycles: 15456794 heartbeat IPC: 1.55327 cumulative IPC: 1.54983 (Simulation time: 0 hr 2 min 22 sec) 
Heartbeat CPU 0 instructions: 40000002 cycles: 21901051 heartbeat IPC: 1.55177 cumulative IPC: 1.55048 (Simulation time: 0 hr 3 min 16 sec) 
Heartbeat CPU 0 instructions: 50000003 cycles: 28355696 heartbeat IPC: 1.54927 cumulative IPC: 1.55017 (Simulation time: 0 hr 4 min 10 sec) 
Heartbeat CPU 0 instructions: 60000000 cycles: 34838725 heartbeat IPC: 1.54249 cumulative IPC: 1.54863 (Simulation time: 0 hr 5 min 1 sec) 
Heartbeat CPU 0 instructions: 70000002 cycles: 41483784 heartbeat IPC: 1.50488 cumulative IPC: 1.54116 (Simulation time: 0 hr 5 min 55 sec) 
Heartbeat CPU 0 instructions: 80000001 cycles: 48090688 heartbeat IPC: 1.51357 cumulative IPC: 1.53716 (Simulation time: 0 hr 6 min 48 sec) 
Heartbeat CPU 0 instructions: 90000000 cycles: 54591712 heartbeat IPC: 1.53822 cumulative IPC: 1.53729 (Simulation time: 0 hr 7 min 40 sec) 
Heartbeat CPU 0 instructions: 100000003 cycles: 61029933 heartbeat IPC: 1.55322 cumulative IPC: 1.53905 (Simulation time: 0 hr 8 min 32 sec) 
Heartbeat CPU 0 instructions: 110000001 cycles: 67423271 heartbeat IPC: 1.56413 cumulative IPC: 1.54152 (Simulation time: 0 hr 9 min 23 sec) 
Finished CPU 0 instructions: 100000002 cycles: 64871127 cumulative IPC: 1.54152 (Simulation time: 0 hr 9 min 23 sec) 

ChampSim completed all CPUs

Region of Interest Statistics

CPU 0 cumulative IPC: 1.54152 instructions: 100000002 cycles: 64871127
cpu0_DTLB TOTAL     ACCESS:   18869623  HIT:   18629062  MISS:     240561
cpu0_DTLB LOAD      ACCESS:   12070850  HIT:   11914329  MISS:     156521
cpu0_DTLB RFO       ACCESS:    6798773  HIT:    6714733  MISS:      84040
cpu0_DTLB PREFETCH  ACCESS:          0  HIT:          0  MISS:          0
cpu0_DTLB WRITEBACK ACCESS:          0  HIT:          0  MISS:          0
cpu0_DTLB TRANSLATION ACCESS:          0  HIT:          0  MISS:          0
cpu0_DTLB PREFETCH  REQUESTED:          0  ISSUED:          0  USEFUL:          0  USELESS:          0
cpu0_DTLB AVERAGE MISS LATENCY: 14.7817 cycles
cpu0_ITLB TOTAL     ACCESS:    5651272  HIT:    5651272  MISS:          0
cpu0_ITLB LOAD      ACCESS:    5651272  HIT:    5651272  MISS:          0
cpu0_ITLB RFO       ACCESS:          0  HIT:          0  MISS:          0
cpu0_ITLB PREFETCH  ACCESS:          0  HIT:          0  MISS:          0
cpu0_ITLB WRITEBACK ACCESS:          0  HIT:          0  MISS:          0
cpu0_ITLB TRANSLATION ACCESS:          0  HIT:          0  MISS:          0
cpu0_ITLB PREFETCH  REQUESTED:          0  ISSUED:          0  USEFUL:          0  USELESS:          0
cpu0_ITLB AVERAGE MISS LATENCY: -nan cycles
cpu0_L1I TOTAL     ACCESS:    9013331  HIT:    8969522  MISS:      43809
cpu0_L1I LOAD      ACCESS:    9013331  HIT:    8969522  MISS:      43809
cpu0_L1I RFO       ACCESS:          0  HIT:          0  MISS:          0
cpu0_L1I PREFETCH  ACCESS:          0  HIT:          0  MISS:          0
cpu0_L1I WRITEBACK ACCESS:          0  HIT:          0  MISS:          0
cpu0_L1I TRANSLATION ACCESS:          0  HIT:          0  MISS:          0
cpu0_L1I PREFETCH  REQUESTED:          0  ISSUED:          0  USEFUL:          0  USELESS:          0
cpu0_L1I AVERAGE MISS LATENCY: 11.7597 cycles
cpu0_STLB TOTAL     ACCESS:     240561  HIT:     239298  MISS:       1263
cpu0_STLB LOAD      ACCESS:     156521  HIT:     155272  MISS:       1249
cpu0_STLB RFO       ACCESS:      84040  HIT:      84026  MISS:         14
cpu0_STLB PREFETCH  ACCESS:          0  HIT:          0  MISS:          0
cpu0_STLB WRITEBACK ACCESS:          0  HIT:          0  MISS:          0
cpu0_STLB TRANSLATION ACCESS:          0  HIT:          0  MISS:          0
cpu0_STLB PREFETCH  REQUESTED:          0  ISSUED:          0  USEFUL:          0  USELESS:          0
cpu0_STLB AVERAGE MISS LATENCY: 1082.03 cycles
cpu0_L1D TOTAL     ACCESS:   29575728  HIT:   29172120  MISS:     403608
cpu0_L1D LOAD      ACCESS:   14322438  HIT:   13997791  MISS:     324647
cpu0_L1D RFO       ACCESS:   15252308  HIT:   15173573  MISS:      78735
cpu0_L1D PREFETCH  ACCESS:          0  HIT:          0  MISS:          0
cpu0_L1D WRITEBACK ACCESS:          0  HIT:          0  MISS:          0
cpu0_L1D TRANSLATION ACCESS:        982  HIT:        756  MISS:        226
cpu0_L1D PREFETCH  REQUESTED:          0  ISSUED:          0  USEFUL:          0  USELESS:          0
cpu0_L1D AVERAGE MISS LATENCY: 118.085 cycles
cpu0_L2C TOTAL     ACCESS:     589994  HIT:     511513  MISS:      78481
cpu0_L2C LOAD      ACCESS:     368456  HIT:     291133  MISS:      77323
cpu0_L2C RFO       ACCESS:      77262  HIT:      76346  MISS:        916
cpu0_L2C PREFETCH  ACCESS:          0  HIT:          0  MISS:          0
cpu0_L2C WRITEBACK ACCESS:     144050  HIT:     143826  MISS:        224
cpu0_L2C TRANSLATION ACCESS:        226  HIT:        208  MISS:         18
cpu0_L2C PREFETCH  REQUESTED:          0  ISSUED:          0  USEFUL:          0  USELESS:          0
cpu0_L2C AVERAGE MISS LATENCY: 550.578 cycles
LLC TOTAL     ACCESS:     115194  HIT:      18341  MISS:      96853
LLC LOAD      ACCESS:      77323  HIT:        315  MISS:      77008
LLC RFO       ACCESS:        916  HIT:         10  MISS:        906
LLC PREFETCH  ACCESS:          0  HIT:          0  MISS:          0
LLC WRITEBACK ACCESS:      36937  HIT:      18006  MISS:      18931
LLC TRANSLATION ACCESS:         18  HIT:         10  MISS:          8
LLC PREFETCH  REQUESTED:          0  ISSUED:          0  USEFUL:          0  USELESS:          0
LLC AVERAGE MISS LATENCY: 429.171 cycles
OPTgen accesses: 1385
OPTgen hits: 32
OPTgen hit rate: 2.31047



DRAM Statistics
 CHANNEL 0
 RQ ROW_BUFFER_HIT:       2506  ROW_BUFFER_MISS:      75416
 DBUS AVG_CONGESTED_CYCLE:    3.96259
 WQ ROW_BUFFER_HIT:        376  ROW_BUFFER_MISS:      22822  FULL:          0


CPU 0 Branch Prediction Accuracy: 97.2223% MPKI: 4.86341 Average ROB Occupancy at Mispredict: 61.3844
Branch type MPKI
BRANCH_DIRECT_JUMP: 0.00019
BRANCH_INDIRECT: 0
BRANCH_CONDITIONAL: 4.86284
BRANCH_DIRECT_CALL: 0.00021
BRANCH_INDIRECT_CALL: 0
BRANCH_RETURN: 0.00017

