
*** ChampSim Multicore Out-of-Order Simulator ***

Warmup Instructions: 10000000
Simulation Instructions: 100000000
Number of CPUs: 1
Off-chip DRAM Size: 4 GiB Channels: 1 Width: 64-bit Data Rate: 3200 MT/s

VirtualMemory physical capacity: 8588881920 num_ppages: 2096895
VirtualMemory page size: 4096 log2_page_size: 12

CPU 0 runs /datasets/cs240c-wi22-a00-public/data/Assignment2/perlbench_135B.trace.xz
CPU 0 Bimodal branch predictor
Basic BTB sets: 1024 ways: 8 indirect buffer size: 4096 RAS size: 64
Initialize Hawkeye state
Heartbeat CPU 0 instructions: 10000000 cycles: 2501133 heartbeat IPC: 3.99819 cumulative IPC: 3.99819 (Simulation time: 0 hr 0 min 36 sec) 

Warmup complete CPU 0 instructions: 10000004 cycles: 2501134 (Simulation time: 0 hr 0 min 36 sec) 

Heartbeat CPU 0 instructions: 20000003 cycles: 16330456 heartbeat IPC: 0.723101 cumulative IPC: 0.723101 (Simulation time: 0 hr 1 min 29 sec) 
Heartbeat CPU 0 instructions: 30000004 cycles: 29094292 heartbeat IPC: 0.783464 cumulative IPC: 0.752073 (Simulation time: 0 hr 2 min 20 sec) 
Heartbeat CPU 0 instructions: 40000001 cycles: 40537443 heartbeat IPC: 0.873885 cumulative IPC: 0.78872 (Simulation time: 0 hr 3 min 8 sec) 
Heartbeat CPU 0 instructions: 50000000 cycles: 53154970 heartbeat IPC: 0.792548 cumulative IPC: 0.789674 (Simulation time: 0 hr 3 min 59 sec) 
Heartbeat CPU 0 instructions: 60000000 cycles: 64715010 heartbeat IPC: 0.865049 cumulative IPC: 0.803679 (Simulation time: 0 hr 4 min 47 sec) 
Heartbeat CPU 0 instructions: 70000001 cycles: 77613513 heartbeat IPC: 0.775284 cumulative IPC: 0.798803 (Simulation time: 0 hr 5 min 37 sec) 
Heartbeat CPU 0 instructions: 80000000 cycles: 88560121 heartbeat IPC: 0.913525 cumulative IPC: 0.813396 (Simulation time: 0 hr 6 min 21 sec) 
Heartbeat CPU 0 instructions: 90000004 cycles: 99439166 heartbeat IPC: 0.919199 cumulative IPC: 0.825269 (Simulation time: 0 hr 7 min 4 sec) 
Heartbeat CPU 0 instructions: 100000000 cycles: 112976898 heartbeat IPC: 0.738676 cumulative IPC: 0.814658 (Simulation time: 0 hr 7 min 54 sec) 
Heartbeat CPU 0 instructions: 110000000 cycles: 126267865 heartbeat IPC: 0.752391 cumulative IPC: 0.807972 (Simulation time: 0 hr 8 min 45 sec) 
Finished CPU 0 instructions: 100000000 cycles: 123766733 cumulative IPC: 0.807972 (Simulation time: 0 hr 8 min 45 sec) 

ChampSim completed all CPUs

Region of Interest Statistics

CPU 0 cumulative IPC: 0.807972 instructions: 100000000 cycles: 123766733
cpu0_DTLB TOTAL     ACCESS:   24834188  HIT:   24177443  MISS:     656745
cpu0_DTLB LOAD      ACCESS:   16163532  HIT:   15592093  MISS:     571439
cpu0_DTLB RFO       ACCESS:    8670656  HIT:    8585350  MISS:      85306
cpu0_DTLB PREFETCH  ACCESS:          0  HIT:          0  MISS:          0
cpu0_DTLB WRITEBACK ACCESS:          0  HIT:          0  MISS:          0
cpu0_DTLB TRANSLATION ACCESS:          0  HIT:          0  MISS:          0
cpu0_DTLB PREFETCH  REQUESTED:          0  ISSUED:          0  USEFUL:          0  USELESS:          0
cpu0_DTLB AVERAGE MISS LATENCY: 9.30609 cycles
cpu0_ITLB TOTAL     ACCESS:    8520288  HIT:    8442124  MISS:      78164
cpu0_ITLB LOAD      ACCESS:    8520288  HIT:    8442124  MISS:      78164
cpu0_ITLB RFO       ACCESS:          0  HIT:          0  MISS:          0
cpu0_ITLB PREFETCH  ACCESS:          0  HIT:          0  MISS:          0
cpu0_ITLB WRITEBACK ACCESS:          0  HIT:          0  MISS:          0
cpu0_ITLB TRANSLATION ACCESS:          0  HIT:          0  MISS:          0
cpu0_ITLB PREFETCH  REQUESTED:          0  ISSUED:          0  USEFUL:          0  USELESS:          0
cpu0_ITLB AVERAGE MISS LATENCY: 9.1144 cycles
cpu0_L1I TOTAL     ACCESS:    9977205  HIT:    9296893  MISS:     680312
cpu0_L1I LOAD      ACCESS:    9977205  HIT:    9296893  MISS:     680312
cpu0_L1I RFO       ACCESS:          0  HIT:          0  MISS:          0
cpu0_L1I PREFETCH  ACCESS:          0  HIT:          0  MISS:          0
cpu0_L1I WRITEBACK ACCESS:          0  HIT:          0  MISS:          0
cpu0_L1I TRANSLATION ACCESS:          0  HIT:          0  MISS:          0
cpu0_L1I PREFETCH  REQUESTED:          0  ISSUED:          0  USEFUL:          0  USELESS:          0
cpu0_L1I AVERAGE MISS LATENCY: 12.121 cycles
cpu0_STLB TOTAL     ACCESS:     734909  HIT:     726456  MISS:       8453
cpu0_STLB LOAD      ACCESS:     649603  HIT:     642240  MISS:       7363
cpu0_STLB RFO       ACCESS:      85306  HIT:      84216  MISS:       1090
cpu0_STLB PREFETCH  ACCESS:          0  HIT:          0  MISS:          0
cpu0_STLB WRITEBACK ACCESS:          0  HIT:          0  MISS:          0
cpu0_STLB TRANSLATION ACCESS:          0  HIT:          0  MISS:          0
cpu0_STLB PREFETCH  REQUESTED:          0  ISSUED:          0  USEFUL:          0  USELESS:          0
cpu0_STLB AVERAGE MISS LATENCY: 24.3541 cycles
cpu0_L1D TOTAL     ACCESS:   32040543  HIT:   31087755  MISS:     952788
cpu0_L1D LOAD      ACCESS:   16947407  HIT:   16082961  MISS:     864446
cpu0_L1D RFO       ACCESS:   15084721  HIT:   14997941  MISS:      86780
cpu0_L1D PREFETCH  ACCESS:          0  HIT:          0  MISS:          0
cpu0_L1D WRITEBACK ACCESS:          0  HIT:          0  MISS:          0
cpu0_L1D TRANSLATION ACCESS:       8415  HIT:       6853  MISS:       1562
cpu0_L1D PREFETCH  REQUESTED:          0  ISSUED:          0  USEFUL:          0  USELESS:          0
cpu0_L1D AVERAGE MISS LATENCY: 17.548 cycles
cpu0_L2C TOTAL     ACCESS:    1889409  HIT:    1714328  MISS:     175081
cpu0_L2C LOAD      ACCESS:    1544744  HIT:    1392619  MISS:     152125
cpu0_L2C RFO       ACCESS:      86773  HIT:      64517  MISS:      22256
cpu0_L2C PREFETCH  ACCESS:          0  HIT:          0  MISS:          0
cpu0_L2C WRITEBACK ACCESS:     256330  HIT:     255860  MISS:        470
cpu0_L2C TRANSLATION ACCESS:       1562  HIT:       1332  MISS:        230
cpu0_L2C PREFETCH  REQUESTED:          0  ISSUED:          0  USEFUL:          0  USELESS:          0
cpu0_L2C AVERAGE MISS LATENCY: 39.8372 cycles
LLC TOTAL     ACCESS:     226405  HIT:     203262  MISS:      23143
LLC LOAD      ACCESS:     152125  HIT:     134130  MISS:      17995
LLC RFO       ACCESS:      22256  HIT:      17633  MISS:       4623
LLC PREFETCH  ACCESS:          0  HIT:          0  MISS:          0
LLC WRITEBACK ACCESS:      51794  HIT:      51273  MISS:        521
LLC TRANSLATION ACCESS:        230  HIT:        226  MISS:          4
LLC PREFETCH  REQUESTED:          0  ISSUED:          0  USEFUL:          0  USELESS:          0
LLC AVERAGE MISS LATENCY: 142.932 cycles
OPTgen accesses: 3385
OPTgen hits: 2644
OPTgen hit rate: 78.1093



DRAM Statistics
 CHANNEL 0
 RQ ROW_BUFFER_HIT:       4732  ROW_BUFFER_MISS:      17890
 DBUS AVG_CONGESTED_CYCLE:    3.85269
 WQ ROW_BUFFER_HIT:       1144  ROW_BUFFER_MISS:       3339  FULL:          0


CPU 0 Branch Prediction Accuracy: 94.5426% MPKI: 12.0745 Average ROB Occupancy at Mispredict: 40.9013
Branch type MPKI
BRANCH_DIRECT_JUMP: 0.00217
BRANCH_INDIRECT: 0.80239
BRANCH_CONDITIONAL: 9.8183
BRANCH_DIRECT_CALL: 0.00216
BRANCH_INDIRECT_CALL: 1.42497
BRANCH_RETURN: 0.02455

