
*** ChampSim Multicore Out-of-Order Simulator ***

Warmup Instructions: 10000000
Simulation Instructions: 100000000
Number of CPUs: 1
Off-chip DRAM Size: 4 GiB Channels: 1 Width: 64-bit Data Rate: 3200 MT/s

VirtualMemory physical capacity: 8588881920 num_ppages: 2096895
VirtualMemory page size: 4096 log2_page_size: 12

CPU 0 runs /datasets/cs240c-wi22-a00-public/data/Assignment2/libquantum_964B.trace.xz
CPU 0 Bimodal branch predictor
Basic BTB sets: 1024 ways: 8 indirect buffer size: 4096 RAS size: 64
Initialize Hawkeye state
Heartbeat CPU 0 instructions: 10000001 cycles: 2500058 heartbeat IPC: 3.99991 cumulative IPC: 3.99991 (Simulation time: 0 hr 0 min 22 sec) 

Warmup complete CPU 0 instructions: 10000001 cycles: 2500058 (Simulation time: 0 hr 0 min 22 sec) 

Heartbeat CPU 0 instructions: 20000002 cycles: 18549271 heartbeat IPC: 0.623084 cumulative IPC: 0.623084 (Simulation time: 0 hr 1 min 15 sec) 
Heartbeat CPU 0 instructions: 30000004 cycles: 42023442 heartbeat IPC: 0.426 cumulative IPC: 0.50603 (Simulation time: 0 hr 2 min 59 sec) 
Heartbeat CPU 0 instructions: 40000001 cycles: 64811765 heartbeat IPC: 0.438821 cumulative IPC: 0.48145 (Simulation time: 0 hr 4 min 56 sec) 
Heartbeat CPU 0 instructions: 50000003 cycles: 71056137 heartbeat IPC: 1.60144 cumulative IPC: 0.583464 (Simulation time: 0 hr 5 min 39 sec) 
Heartbeat CPU 0 instructions: 60000004 cycles: 81973952 heartbeat IPC: 0.915934 cumulative IPC: 0.629137 (Simulation time: 0 hr 6 min 23 sec) 
Heartbeat CPU 0 instructions: 70000003 cycles: 97434847 heartbeat IPC: 0.646793 cumulative IPC: 0.632013 (Simulation time: 0 hr 7 min 11 sec) 
Heartbeat CPU 0 instructions: 80000002 cycles: 124971070 heartbeat IPC: 0.363158 cumulative IPC: 0.571564 (Simulation time: 0 hr 9 min 17 sec) 
Heartbeat CPU 0 instructions: 90000001 cycles: 141311274 heartbeat IPC: 0.611987 cumulative IPC: 0.576322 (Simulation time: 0 hr 10 min 49 sec) 
Heartbeat CPU 0 instructions: 100000001 cycles: 146146812 heartbeat IPC: 2.06802 cumulative IPC: 0.626537 (Simulation time: 0 hr 11 min 29 sec) 
Heartbeat CPU 0 instructions: 110000003 cycles: 169824694 heartbeat IPC: 0.422335 cumulative IPC: 0.597641 (Simulation time: 0 hr 13 min 31 sec) 
Finished CPU 0 instructions: 100000002 cycles: 167324636 cumulative IPC: 0.597641 (Simulation time: 0 hr 13 min 31 sec) 

ChampSim completed all CPUs

Region of Interest Statistics

CPU 0 cumulative IPC: 0.597641 instructions: 100000002 cycles: 167324636
cpu0_DTLB TOTAL     ACCESS:    9075075  HIT:    9022077  MISS:      52998
cpu0_DTLB LOAD      ACCESS:    6201704  HIT:    6170514  MISS:      31190
cpu0_DTLB RFO       ACCESS:    2873371  HIT:    2851563  MISS:      21808
cpu0_DTLB PREFETCH  ACCESS:          0  HIT:          0  MISS:          0
cpu0_DTLB WRITEBACK ACCESS:          0  HIT:          0  MISS:          0
cpu0_DTLB TRANSLATION ACCESS:          0  HIT:          0  MISS:          0
cpu0_DTLB PREFETCH  REQUESTED:          0  ISSUED:          0  USEFUL:          0  USELESS:          0
cpu0_DTLB AVERAGE MISS LATENCY: 38.101 cycles
cpu0_ITLB TOTAL     ACCESS:    1926572  HIT:    1926571  MISS:          1
cpu0_ITLB LOAD      ACCESS:    1926572  HIT:    1926571  MISS:          1
cpu0_ITLB RFO       ACCESS:          0  HIT:          0  MISS:          0
cpu0_ITLB PREFETCH  ACCESS:          0  HIT:          0  MISS:          0
cpu0_ITLB WRITEBACK ACCESS:          0  HIT:          0  MISS:          0
cpu0_ITLB TRANSLATION ACCESS:          0  HIT:          0  MISS:          0
cpu0_ITLB PREFETCH  REQUESTED:          0  ISSUED:          0  USEFUL:          0  USELESS:          0
cpu0_ITLB AVERAGE MISS LATENCY: 217 cycles
cpu0_L1I TOTAL     ACCESS:         11  HIT:          7  MISS:          4
cpu0_L1I LOAD      ACCESS:         11  HIT:          7  MISS:          4
cpu0_L1I RFO       ACCESS:          0  HIT:          0  MISS:          0
cpu0_L1I PREFETCH  ACCESS:          0  HIT:          0  MISS:          0
cpu0_L1I WRITEBACK ACCESS:          0  HIT:          0  MISS:          0
cpu0_L1I TRANSLATION ACCESS:          0  HIT:          0  MISS:          0
cpu0_L1I PREFETCH  REQUESTED:          0  ISSUED:          0  USEFUL:          0  USELESS:          0
cpu0_L1I AVERAGE MISS LATENCY: 194.25 cycles
cpu0_STLB TOTAL     ACCESS:      52999  HIT:          0  MISS:      52999
cpu0_STLB LOAD      ACCESS:      31191  HIT:          0  MISS:      31191
cpu0_STLB RFO       ACCESS:      21808  HIT:          0  MISS:      21808
cpu0_STLB PREFETCH  ACCESS:          0  HIT:          0  MISS:          0
cpu0_STLB WRITEBACK ACCESS:          0  HIT:          0  MISS:          0
cpu0_STLB TRANSLATION ACCESS:          0  HIT:          0  MISS:          0
cpu0_STLB PREFETCH  REQUESTED:          0  ISSUED:          0  USEFUL:          0  USELESS:          0
cpu0_STLB AVERAGE MISS LATENCY: 29.1044 cycles
cpu0_L1D TOTAL     ACCESS:    9382915  HIT:    5992485  MISS:    3390430
cpu0_L1D LOAD      ACCESS:    3614184  HIT:     223815  MISS:    3390369
cpu0_L1D RFO       ACCESS:    5715732  HIT:    5715708  MISS:         24
cpu0_L1D PREFETCH  ACCESS:          0  HIT:          0  MISS:          0
cpu0_L1D WRITEBACK ACCESS:          0  HIT:          0  MISS:          0
cpu0_L1D TRANSLATION ACCESS:      52999  HIT:      52962  MISS:         37
cpu0_L1D PREFETCH  REQUESTED:          0  ISSUED:          0  USEFUL:          0  USELESS:          0
cpu0_L1D AVERAGE MISS LATENCY: 420.614 cycles
cpu0_L2C TOTAL     ACCESS:    4919957  HIT:    1529523  MISS:    3390434
cpu0_L2C LOAD      ACCESS:    3390373  HIT:          0  MISS:    3390373
cpu0_L2C RFO       ACCESS:         24  HIT:          0  MISS:         24
cpu0_L2C PREFETCH  ACCESS:          0  HIT:          0  MISS:          0
cpu0_L2C WRITEBACK ACCESS:    1529523  HIT:    1529523  MISS:          0
cpu0_L2C TRANSLATION ACCESS:         37  HIT:          0  MISS:         37
cpu0_L2C PREFETCH  REQUESTED:          0  ISSUED:          0  USEFUL:          0  USELESS:          0
cpu0_L2C AVERAGE MISS LATENCY: 409.612 cycles
LLC TOTAL     ACCESS:    4913645  HIT:     265073  MISS:    4648572
LLC LOAD      ACCESS:    3390373  HIT:     168073  MISS:    3222300
LLC RFO       ACCESS:         24  HIT:         20  MISS:          4
LLC PREFETCH  ACCESS:          0  HIT:          0  MISS:          0
LLC WRITEBACK ACCESS:    1523211  HIT:      96968  MISS:    1426243
LLC TRANSLATION ACCESS:         37  HIT:         12  MISS:         25
LLC PREFETCH  REQUESTED:          0  ISSUED:          0  USEFUL:          0  USELESS:          0
LLC AVERAGE MISS LATENCY: 282.899 cycles
OPTgen accesses: 57310
OPTgen hits: 1017
OPTgen hit rate: 1.77456



DRAM Statistics
 CHANNEL 0
 RQ ROW_BUFFER_HIT:    1764675  ROW_BUFFER_MISS:    1457610
 DBUS AVG_CONGESTED_CYCLE:    3.89981
 WQ ROW_BUFFER_HIT:     264870  ROW_BUFFER_MISS:    1198084  FULL:     396910


CPU 0 Branch Prediction Accuracy: 98.7463% MPKI: 2.70066 Average ROB Occupancy at Mispredict: 44.7802
Branch type MPKI
BRANCH_DIRECT_JUMP: 1e-05
BRANCH_INDIRECT: 0
BRANCH_CONDITIONAL: 2.70053
BRANCH_DIRECT_CALL: 6e-05
BRANCH_INDIRECT_CALL: 0
BRANCH_RETURN: 6e-05

