
*** ChampSim Multicore Out-of-Order Simulator ***

Warmup Instructions: 10000000
Simulation Instructions: 100000000
Number of CPUs: 1
Off-chip DRAM Size: 4 GiB Channels: 1 Width: 64-bit Data Rate: 3200 MT/s

VirtualMemory physical capacity: 8588881920 num_ppages: 2096895
VirtualMemory page size: 4096 log2_page_size: 12

CPU 0 runs /datasets/cs240c-wi22-a00-public/data/Assignment2/calculix_2655B.trace.xz
CPU 0 Bimodal branch predictor
Basic BTB sets: 1024 ways: 8 indirect buffer size: 4096 RAS size: 64
Initialize Hawkeye state
Heartbeat CPU 0 instructions: 10000003 cycles: 2503575 heartbeat IPC: 3.99429 cumulative IPC: 3.99429 (Simulation time: 0 hr 0 min 26 sec) 

Warmup complete CPU 0 instructions: 10000003 cycles: 2503575 (Simulation time: 0 hr 0 min 26 sec) 

Heartbeat CPU 0 instructions: 20000002 cycles: 5943089 heartbeat IPC: 2.90739 cumulative IPC: 2.90739 (Simulation time: 0 hr 0 min 59 sec) 
Heartbeat CPU 0 instructions: 30000004 cycles: 9583804 heartbeat IPC: 2.74671 cumulative IPC: 2.82477 (Simulation time: 0 hr 1 min 32 sec) 
Heartbeat CPU 0 instructions: 40000004 cycles: 13225180 heartbeat IPC: 2.74621 cumulative IPC: 2.79809 (Simulation time: 0 hr 2 min 3 sec) 
Heartbeat CPU 0 instructions: 50000001 cycles: 17008761 heartbeat IPC: 2.643 cumulative IPC: 2.75763 (Simulation time: 0 hr 2 min 35 sec) 
Heartbeat CPU 0 instructions: 60000003 cycles: 20990420 heartbeat IPC: 2.51152 cumulative IPC: 2.70463 (Simulation time: 0 hr 3 min 8 sec) 
Heartbeat CPU 0 instructions: 70000001 cycles: 25132729 heartbeat IPC: 2.41411 cumulative IPC: 2.65145 (Simulation time: 0 hr 3 min 42 sec) 
Heartbeat CPU 0 instructions: 80000001 cycles: 28968657 heartbeat IPC: 2.60693 cumulative IPC: 2.64499 (Simulation time: 0 hr 4 min 13 sec) 
Heartbeat CPU 0 instructions: 90000002 cycles: 32747175 heartbeat IPC: 2.64654 cumulative IPC: 2.64519 (Simulation time: 0 hr 4 min 43 sec) 
Heartbeat CPU 0 instructions: 100000003 cycles: 36318259 heartbeat IPC: 2.80027 cumulative IPC: 2.66157 (Simulation time: 0 hr 5 min 15 sec) 
Heartbeat CPU 0 instructions: 110000004 cycles: 39882475 heartbeat IPC: 2.80567 cumulative IPC: 2.67531 (Simulation time: 0 hr 5 min 46 sec) 
Finished CPU 0 instructions: 100000001 cycles: 37378900 cumulative IPC: 2.67531 (Simulation time: 0 hr 5 min 46 sec) 

ChampSim completed all CPUs

Region of Interest Statistics

CPU 0 cumulative IPC: 2.67531 instructions: 100000001 cycles: 37378900
cpu0_DTLB TOTAL     ACCESS:   12581439  HIT:   12565894  MISS:      15545
cpu0_DTLB LOAD      ACCESS:   11995003  HIT:   11979502  MISS:      15501
cpu0_DTLB RFO       ACCESS:     586436  HIT:     586392  MISS:         44
cpu0_DTLB PREFETCH  ACCESS:          0  HIT:          0  MISS:          0
cpu0_DTLB WRITEBACK ACCESS:          0  HIT:          0  MISS:          0
cpu0_DTLB TRANSLATION ACCESS:          0  HIT:          0  MISS:          0
cpu0_DTLB PREFETCH  REQUESTED:          0  ISSUED:          0  USEFUL:          0  USELESS:          0
cpu0_DTLB AVERAGE MISS LATENCY: 34.1139 cycles
cpu0_ITLB TOTAL     ACCESS:    6289737  HIT:    6289737  MISS:          0
cpu0_ITLB LOAD      ACCESS:    6289737  HIT:    6289737  MISS:          0
cpu0_ITLB RFO       ACCESS:          0  HIT:          0  MISS:          0
cpu0_ITLB PREFETCH  ACCESS:          0  HIT:          0  MISS:          0
cpu0_ITLB WRITEBACK ACCESS:          0  HIT:          0  MISS:          0
cpu0_ITLB TRANSLATION ACCESS:          0  HIT:          0  MISS:          0
cpu0_ITLB PREFETCH  REQUESTED:          0  ISSUED:          0  USEFUL:          0  USELESS:          0
cpu0_ITLB AVERAGE MISS LATENCY: -nan cycles
cpu0_L1I TOTAL     ACCESS:       2858  HIT:       2858  MISS:          0
cpu0_L1I LOAD      ACCESS:       2858  HIT:       2858  MISS:          0
cpu0_L1I RFO       ACCESS:          0  HIT:          0  MISS:          0
cpu0_L1I PREFETCH  ACCESS:          0  HIT:          0  MISS:          0
cpu0_L1I WRITEBACK ACCESS:          0  HIT:          0  MISS:          0
cpu0_L1I TRANSLATION ACCESS:          0  HIT:          0  MISS:          0
cpu0_L1I PREFETCH  REQUESTED:          0  ISSUED:          0  USEFUL:          0  USELESS:          0
cpu0_L1I AVERAGE MISS LATENCY: -nan cycles
cpu0_STLB TOTAL     ACCESS:      15545  HIT:      13635  MISS:       1910
cpu0_STLB LOAD      ACCESS:      15501  HIT:      13593  MISS:       1908
cpu0_STLB RFO       ACCESS:         44  HIT:         42  MISS:          2
cpu0_STLB PREFETCH  ACCESS:          0  HIT:          0  MISS:          0
cpu0_STLB WRITEBACK ACCESS:          0  HIT:          0  MISS:          0
cpu0_STLB TRANSLATION ACCESS:          0  HIT:          0  MISS:          0
cpu0_STLB PREFETCH  REQUESTED:          0  ISSUED:          0  USEFUL:          0  USELESS:          0
cpu0_STLB AVERAGE MISS LATENCY: 204.26 cycles
cpu0_L1D TOTAL     ACCESS:   14111328  HIT:   12897835  MISS:    1213493
cpu0_L1D LOAD      ACCESS:   12551971  HIT:   11339789  MISS:    1212182
cpu0_L1D RFO       ACCESS:    1557477  HIT:    1556233  MISS:       1244
cpu0_L1D PREFETCH  ACCESS:          0  HIT:          0  MISS:          0
cpu0_L1D WRITEBACK ACCESS:          0  HIT:          0  MISS:          0
cpu0_L1D TRANSLATION ACCESS:       1880  HIT:       1813  MISS:         67
cpu0_L1D PREFETCH  REQUESTED:          0  ISSUED:          0  USEFUL:          0  USELESS:          0
cpu0_L1D AVERAGE MISS LATENCY: 27.3507 cycles
cpu0_L2C TOTAL     ACCESS:    1327973  HIT:    1058352  MISS:     269621
cpu0_L2C LOAD      ACCESS:    1212182  HIT:     942700  MISS:     269482
cpu0_L2C RFO       ACCESS:       1244  HIT:       1214  MISS:         30
cpu0_L2C PREFETCH  ACCESS:          0  HIT:          0  MISS:          0
cpu0_L2C WRITEBACK ACCESS:     114480  HIT:     114388  MISS:         92
cpu0_L2C TRANSLATION ACCESS:         67  HIT:         50  MISS:         17
cpu0_L2C PREFETCH  REQUESTED:          0  ISSUED:          0  USEFUL:          0  USELESS:          0
cpu0_L2C AVERAGE MISS LATENCY: 73.3281 cycles
LLC TOTAL     ACCESS:     335155  HIT:     213070  MISS:     122085
LLC LOAD      ACCESS:     269482  HIT:     147896  MISS:     121586
LLC RFO       ACCESS:         30  HIT:         21  MISS:          9
LLC PREFETCH  ACCESS:          0  HIT:          0  MISS:          0
LLC WRITEBACK ACCESS:      65626  HIT:      65138  MISS:        488
LLC TRANSLATION ACCESS:         17  HIT:         15  MISS:          2
LLC PREFETCH  REQUESTED:          0  ISSUED:          0  USEFUL:          0  USELESS:          0
LLC AVERAGE MISS LATENCY: 115.58 cycles
OPTgen accesses: 4939
OPTgen hits: 2892
OPTgen hit rate: 58.5544



DRAM Statistics
 CHANNEL 0
 RQ ROW_BUFFER_HIT:      84686  ROW_BUFFER_MISS:      36910
 DBUS AVG_CONGESTED_CYCLE:     3.8047
 WQ ROW_BUFFER_HIT:        521  ROW_BUFFER_MISS:       1957  FULL:          0


CPU 0 Branch Prediction Accuracy: 96.352% MPKI: 1.49459 Average ROB Occupancy at Mispredict: 218.997
Branch type MPKI
BRANCH_DIRECT_JUMP: 0
BRANCH_INDIRECT: 0
BRANCH_CONDITIONAL: 1.49459
BRANCH_DIRECT_CALL: 0
BRANCH_INDIRECT_CALL: 0
BRANCH_RETURN: 0

