
*** ChampSim Multicore Out-of-Order Simulator ***

Warmup Instructions: 10000000
Simulation Instructions: 100000000
Number of CPUs: 1
Off-chip DRAM Size: 4 GiB Channels: 1 Width: 64-bit Data Rate: 3200 MT/s

VirtualMemory physical capacity: 8588881920 num_ppages: 2096895
VirtualMemory page size: 4096 log2_page_size: 12

CPU 0 runs /datasets/cs240c-wi22-a00-public/data/Assignment2/astar_23B.trace.xz
CPU 0 Bimodal branch predictor
Basic BTB sets: 1024 ways: 8 indirect buffer size: 4096 RAS size: 64
Initialize Hawkeye state
Heartbeat CPU 0 instructions: 10000002 cycles: 2670768 heartbeat IPC: 3.74424 cumulative IPC: 3.74424 (Simulation time: 0 hr 0 min 38 sec) 

Warmup complete CPU 0 instructions: 10000002 cycles: 2670768 (Simulation time: 0 hr 0 min 38 sec) 

Heartbeat CPU 0 instructions: 20000003 cycles: 25571595 heartbeat IPC: 0.436666 cumulative IPC: 0.436666 (Simulation time: 0 hr 1 min 26 sec) 
Heartbeat CPU 0 instructions: 30000000 cycles: 49850509 heartbeat IPC: 0.41188 cumulative IPC: 0.423911 (Simulation time: 0 hr 2 min 15 sec) 
Heartbeat CPU 0 instructions: 40000002 cycles: 74322781 heartbeat IPC: 0.408626 cumulative IPC: 0.41869 (Simulation time: 0 hr 3 min 7 sec) 
Heartbeat CPU 0 instructions: 50000002 cycles: 98549558 heartbeat IPC: 0.412766 cumulative IPC: 0.417193 (Simulation time: 0 hr 3 min 58 sec) 
Heartbeat CPU 0 instructions: 60000000 cycles: 123120752 heartbeat IPC: 0.406981 cumulative IPC: 0.41511 (Simulation time: 0 hr 4 min 48 sec) 
Heartbeat CPU 0 instructions: 70000000 cycles: 146194070 heartbeat IPC: 0.433401 cumulative IPC: 0.418051 (Simulation time: 0 hr 5 min 36 sec) 
Heartbeat CPU 0 instructions: 80000000 cycles: 170337542 heartbeat IPC: 0.414191 cumulative IPC: 0.417495 (Simulation time: 0 hr 6 min 26 sec) 
Heartbeat CPU 0 instructions: 90000004 cycles: 195093996 heartbeat IPC: 0.403935 cumulative IPC: 0.41575 (Simulation time: 0 hr 7 min 15 sec) 
Heartbeat CPU 0 instructions: 100000002 cycles: 218596439 heartbeat IPC: 0.425488 cumulative IPC: 0.41681 (Simulation time: 0 hr 8 min 3 sec) 
Heartbeat CPU 0 instructions: 110000003 cycles: 242709397 heartbeat IPC: 0.414715 cumulative IPC: 0.4166 (Simulation time: 0 hr 8 min 54 sec) 
Finished CPU 0 instructions: 100000001 cycles: 240038629 cumulative IPC: 0.4166 (Simulation time: 0 hr 8 min 54 sec) 

ChampSim completed all CPUs

Region of Interest Statistics

CPU 0 cumulative IPC: 0.4166 instructions: 100000001 cycles: 240038629
cpu0_DTLB TOTAL     ACCESS:   24054190  HIT:   21626344  MISS:    2427846
cpu0_DTLB LOAD      ACCESS:   21285518  HIT:   19103585  MISS:    2181933
cpu0_DTLB RFO       ACCESS:    2768672  HIT:    2522759  MISS:     245913
cpu0_DTLB PREFETCH  ACCESS:          0  HIT:          0  MISS:          0
cpu0_DTLB WRITEBACK ACCESS:          0  HIT:          0  MISS:          0
cpu0_DTLB TRANSLATION ACCESS:          0  HIT:          0  MISS:          0
cpu0_DTLB PREFETCH  REQUESTED:          0  ISSUED:          0  USEFUL:          0  USELESS:          0
cpu0_DTLB AVERAGE MISS LATENCY: 10.5709 cycles
cpu0_ITLB TOTAL     ACCESS:   12810380  HIT:   12810370  MISS:         10
cpu0_ITLB LOAD      ACCESS:   12810380  HIT:   12810370  MISS:         10
cpu0_ITLB RFO       ACCESS:          0  HIT:          0  MISS:          0
cpu0_ITLB PREFETCH  ACCESS:          0  HIT:          0  MISS:          0
cpu0_ITLB WRITEBACK ACCESS:          0  HIT:          0  MISS:          0
cpu0_ITLB TRANSLATION ACCESS:          0  HIT:          0  MISS:          0
cpu0_ITLB PREFETCH  REQUESTED:          0  ISSUED:          0  USEFUL:          0  USELESS:          0
cpu0_ITLB AVERAGE MISS LATENCY: 239.6 cycles
cpu0_L1I TOTAL     ACCESS:       4962  HIT:       4861  MISS:        101
cpu0_L1I LOAD      ACCESS:       4962  HIT:       4861  MISS:        101
cpu0_L1I RFO       ACCESS:          0  HIT:          0  MISS:          0
cpu0_L1I PREFETCH  ACCESS:          0  HIT:          0  MISS:          0
cpu0_L1I WRITEBACK ACCESS:          0  HIT:          0  MISS:          0
cpu0_L1I TRANSLATION ACCESS:          0  HIT:          0  MISS:          0
cpu0_L1I PREFETCH  REQUESTED:          0  ISSUED:          0  USEFUL:          0  USELESS:          0
cpu0_L1I AVERAGE MISS LATENCY: 195.762 cycles
cpu0_STLB TOTAL     ACCESS:    2427856  HIT:    2026646  MISS:     401210
cpu0_STLB LOAD      ACCESS:    2181943  HIT:    1847055  MISS:     334888
cpu0_STLB RFO       ACCESS:     245913  HIT:     179591  MISS:      66322
cpu0_STLB PREFETCH  ACCESS:          0  HIT:          0  MISS:          0
cpu0_STLB WRITEBACK ACCESS:          0  HIT:          0  MISS:          0
cpu0_STLB TRANSLATION ACCESS:          0  HIT:          0  MISS:          0
cpu0_STLB PREFETCH  REQUESTED:          0  ISSUED:          0  USEFUL:          0  USELESS:          0
cpu0_STLB AVERAGE MISS LATENCY: 9.44636 cycles
cpu0_L1D TOTAL     ACCESS:   26431727  HIT:   23507235  MISS:    2924492
cpu0_L1D LOAD      ACCESS:   21757767  HIT:   18872341  MISS:    2885426
cpu0_L1D RFO       ACCESS:    4287434  HIT:    4250351  MISS:      37083
cpu0_L1D PREFETCH  ACCESS:          0  HIT:          0  MISS:          0
cpu0_L1D WRITEBACK ACCESS:          0  HIT:          0  MISS:          0
cpu0_L1D TRANSLATION ACCESS:     386526  HIT:     384543  MISS:       1983
cpu0_L1D PREFETCH  REQUESTED:          0  ISSUED:          0  USEFUL:          0  USELESS:          0
cpu0_L1D AVERAGE MISS LATENCY: 33.5904 cycles
cpu0_L2C TOTAL     ACCESS:    3881066  HIT:    2756697  MISS:    1124369
cpu0_L2C LOAD      ACCESS:    2885456  HIT:    1767326  MISS:    1118130
cpu0_L2C RFO       ACCESS:      37083  HIT:      31088  MISS:       5995
cpu0_L2C PREFETCH  ACCESS:          0  HIT:          0  MISS:          0
cpu0_L2C WRITEBACK ACCESS:     956544  HIT:     956488  MISS:         56
cpu0_L2C TRANSLATION ACCESS:       1983  HIT:       1795  MISS:        188
cpu0_L2C PREFETCH  REQUESTED:          0  ISSUED:          0  USEFUL:          0  USELESS:          0
cpu0_L2C AVERAGE MISS LATENCY: 58.7214 cycles
LLC TOTAL     ACCESS:    1532664  HIT:    1252171  MISS:     280493
LLC LOAD      ACCESS:    1117973  HIT:     873148  MISS:     244825
LLC RFO       ACCESS:       5995  HIT:       5682  MISS:        313
LLC PREFETCH  ACCESS:          0  HIT:          0  MISS:          0
LLC WRITEBACK ACCESS:     408508  HIT:     373172  MISS:      35336
LLC TRANSLATION ACCESS:        188  HIT:        169  MISS:         19
LLC PREFETCH  REQUESTED:          0  ISSUED:          0  USEFUL:          0  USELESS:          0
LLC AVERAGE MISS LATENCY: 151.223 cycles
OPTgen accesses: 18808
OPTgen hits: 14816
OPTgen hit rate: 78.775



DRAM Statistics
 CHANNEL 0
 RQ ROW_BUFFER_HIT:        707  ROW_BUFFER_MISS:     244171
 DBUS AVG_CONGESTED_CYCLE:    3.57208
 WQ ROW_BUFFER_HIT:       7245  ROW_BUFFER_MISS:     134800  FULL:          0


CPU 0 Branch Prediction Accuracy: 69.3175% MPKI: 58.5794 Average ROB Occupancy at Mispredict: 5.13465
Branch type MPKI
BRANCH_DIRECT_JUMP: 0.00025
BRANCH_INDIRECT: 0
BRANCH_CONDITIONAL: 58.5789
BRANCH_DIRECT_CALL: 0.00016
BRANCH_INDIRECT_CALL: 0
BRANCH_RETURN: 0.00016

