
*** ChampSim Multicore Out-of-Order Simulator ***

Warmup Instructions: 10000000
Simulation Instructions: 100000000
Number of CPUs: 1
Off-chip DRAM Size: 4 GiB Channels: 1 Width: 64-bit Data Rate: 3200 MT/s

VirtualMemory physical capacity: 8588881920 num_ppages: 2096895
VirtualMemory page size: 4096 log2_page_size: 12

CPU 0 runs /datasets/cs240c-wi22-a00-public/data/Assignment2/lbm_564B.trace.xz
CPU 0 Bimodal branch predictor
Basic BTB sets: 1024 ways: 8 indirect buffer size: 4096 RAS size: 64
Initialize Hawkeye state
Heartbeat CPU 0 instructions: 10000000 cycles: 2507075 heartbeat IPC: 3.98871 cumulative IPC: 3.98871 (Simulation time: 0 hr 0 min 24 sec) 

Warmup complete CPU 0 instructions: 10000004 cycles: 2507076 (Simulation time: 0 hr 0 min 24 sec) 

Heartbeat CPU 0 instructions: 20000004 cycles: 32461740 heartbeat IPC: 0.333838 cumulative IPC: 0.333838 (Simulation time: 0 hr 2 min 23 sec) 
Heartbeat CPU 0 instructions: 30000000 cycles: 88826548 heartbeat IPC: 0.177416 cumulative IPC: 0.231697 (Simulation time: 0 hr 6 min 38 sec) 
Heartbeat CPU 0 instructions: 40000000 cycles: 117354377 heartbeat IPC: 0.350535 cumulative IPC: 0.261216 (Simulation time: 0 hr 8 min 32 sec) 
Heartbeat CPU 0 instructions: 50000000 cycles: 148224647 heartbeat IPC: 0.323936 cumulative IPC: 0.274504 (Simulation time: 0 hr 10 min 33 sec) 
Heartbeat CPU 0 instructions: 60000001 cycles: 177977374 heartbeat IPC: 0.336104 cumulative IPC: 0.284948 (Simulation time: 0 hr 12 min 30 sec) 
Heartbeat CPU 0 instructions: 70000002 cycles: 208212882 heartbeat IPC: 0.330737 cumulative IPC: 0.291679 (Simulation time: 0 hr 14 min 30 sec) 
Heartbeat CPU 0 instructions: 80000004 cycles: 240662917 heartbeat IPC: 0.308166 cumulative IPC: 0.293925 (Simulation time: 0 hr 16 min 39 sec) 
Heartbeat CPU 0 instructions: 90000003 cycles: 273808844 heartbeat IPC: 0.301696 cumulative IPC: 0.294875 (Simulation time: 0 hr 18 min 53 sec) 
Heartbeat CPU 0 instructions: 100000004 cycles: 306277395 heartbeat IPC: 0.30799 cumulative IPC: 0.296276 (Simulation time: 0 hr 21 min 6 sec) 
Heartbeat CPU 0 instructions: 110000003 cycles: 339221282 heartbeat IPC: 0.303546 cumulative IPC: 0.296988 (Simulation time: 0 hr 23 min 22 sec) 
Finished CPU 0 instructions: 100000004 cycles: 336714207 cumulative IPC: 0.296988 (Simulation time: 0 hr 23 min 22 sec) 

ChampSim completed all CPUs

Region of Interest Statistics

CPU 0 cumulative IPC: 0.296988 instructions: 100000004 cycles: 336714207
cpu0_DTLB TOTAL     ACCESS:   13897607  HIT:   13844833  MISS:      52774
cpu0_DTLB LOAD      ACCESS:    6992464  HIT:    6979265  MISS:      13199
cpu0_DTLB RFO       ACCESS:    6905143  HIT:    6865568  MISS:      39575
cpu0_DTLB PREFETCH  ACCESS:          0  HIT:          0  MISS:          0
cpu0_DTLB WRITEBACK ACCESS:          0  HIT:          0  MISS:          0
cpu0_DTLB TRANSLATION ACCESS:          0  HIT:          0  MISS:          0
cpu0_DTLB PREFETCH  REQUESTED:          0  ISSUED:          0  USEFUL:          0  USELESS:          0
cpu0_DTLB AVERAGE MISS LATENCY: 447.023 cycles
cpu0_ITLB TOTAL     ACCESS:     149758  HIT:     149757  MISS:          1
cpu0_ITLB LOAD      ACCESS:     149758  HIT:     149757  MISS:          1
cpu0_ITLB RFO       ACCESS:          0  HIT:          0  MISS:          0
cpu0_ITLB PREFETCH  ACCESS:          0  HIT:          0  MISS:          0
cpu0_ITLB WRITEBACK ACCESS:          0  HIT:          0  MISS:          0
cpu0_ITLB TRANSLATION ACCESS:          0  HIT:          0  MISS:          0
cpu0_ITLB PREFETCH  REQUESTED:          0  ISSUED:          0  USEFUL:          0  USELESS:          0
cpu0_ITLB AVERAGE MISS LATENCY: 1239 cycles
cpu0_L1I TOTAL     ACCESS:         12  HIT:          6  MISS:          6
cpu0_L1I LOAD      ACCESS:         12  HIT:          6  MISS:          6
cpu0_L1I RFO       ACCESS:          0  HIT:          0  MISS:          0
cpu0_L1I PREFETCH  ACCESS:          0  HIT:          0  MISS:          0
cpu0_L1I WRITEBACK ACCESS:          0  HIT:          0  MISS:          0
cpu0_L1I TRANSLATION ACCESS:          0  HIT:          0  MISS:          0
cpu0_L1I PREFETCH  REQUESTED:          0  ISSUED:          0  USEFUL:          0  USELESS:          0
cpu0_L1I AVERAGE MISS LATENCY: 404.5 cycles
cpu0_STLB TOTAL     ACCESS:      52775  HIT:          5  MISS:      52770
cpu0_STLB LOAD      ACCESS:      13200  HIT:          0  MISS:      13200
cpu0_STLB RFO       ACCESS:      39575  HIT:          5  MISS:      39570
cpu0_STLB PREFETCH  ACCESS:          0  HIT:          0  MISS:          0
cpu0_STLB WRITEBACK ACCESS:          0  HIT:          0  MISS:          0
cpu0_STLB TRANSLATION ACCESS:          0  HIT:          0  MISS:          0
cpu0_STLB PREFETCH  REQUESTED:          0  ISSUED:          0  USEFUL:          0  USELESS:          0
cpu0_STLB AVERAGE MISS LATENCY: 438.08 cycles
cpu0_L1D TOTAL     ACCESS:   15375556  HIT:    9809365  MISS:    5566191
cpu0_L1D LOAD      ACCESS:    4367857  HIT:    3524272  MISS:     843585
cpu0_L1D RFO       ACCESS:   10954941  HIT:    6232386  MISS:    4722555
cpu0_L1D PREFETCH  ACCESS:          0  HIT:          0  MISS:          0
cpu0_L1D WRITEBACK ACCESS:          0  HIT:          0  MISS:          0
cpu0_L1D TRANSLATION ACCESS:      52758  HIT:      52707  MISS:         51
cpu0_L1D PREFETCH  REQUESTED:          0  ISSUED:          0  USEFUL:          0  USELESS:          0
cpu0_L1D AVERAGE MISS LATENCY: 446.797 cycles
cpu0_L2C TOTAL     ACCESS:   10288750  HIT:    6913163  MISS:    3375587
cpu0_L2C LOAD      ACCESS:     843591  HIT:        216  MISS:     843375
cpu0_L2C RFO       ACCESS:    4722555  HIT:    2190518  MISS:    2532037
cpu0_L2C PREFETCH  ACCESS:          0  HIT:          0  MISS:          0
cpu0_L2C WRITEBACK ACCESS:    4722553  HIT:    4722429  MISS:        124
cpu0_L2C TRANSLATION ACCESS:         51  HIT:          0  MISS:         51
cpu0_L2C PREFETCH  REQUESTED:          0  ISSUED:          0  USEFUL:          0  USELESS:          0
cpu0_L2C AVERAGE MISS LATENCY: 717.3 cycles
LLC TOTAL     ACCESS:    5907538  HIT:    1676993  MISS:    4230545
LLC LOAD      ACCESS:     843375  HIT:         53  MISS:     843322
LLC RFO       ACCESS:    2532033  HIT:     630592  MISS:    1901441
LLC PREFETCH  ACCESS:          0  HIT:          0  MISS:          0
LLC WRITEBACK ACCESS:    2532079  HIT:    1046330  MISS:    1485749
LLC TRANSLATION ACCESS:         51  HIT:         18  MISS:         33
LLC PREFETCH  REQUESTED:          0  ISSUED:          0  USEFUL:          0  USELESS:          0
LLC AVERAGE MISS LATENCY: 555.584 cycles
OPTgen accesses: 57393
OPTgen hits: 15004
OPTgen hit rate: 26.1426



DRAM Statistics
 CHANNEL 0
 RQ ROW_BUFFER_HIT:      49296  ROW_BUFFER_MISS:    2695222
 DBUS AVG_CONGESTED_CYCLE:    3.99524
 WQ ROW_BUFFER_HIT:      27750  ROW_BUFFER_MISS:    2141982  FULL:        170


CPU 0 Branch Prediction Accuracy: 99.0902% MPKI: 0.11542 Average ROB Occupancy at Mispredict: 182.194
Branch type MPKI
BRANCH_DIRECT_JUMP: 2e-05
BRANCH_INDIRECT: 0
BRANCH_CONDITIONAL: 0.11536
BRANCH_DIRECT_CALL: 2e-05
BRANCH_INDIRECT_CALL: 0
BRANCH_RETURN: 2e-05

