
*** ChampSim Multicore Out-of-Order Simulator ***

Warmup Instructions: 10000000
Simulation Instructions: 100000000
Number of CPUs: 1
Off-chip DRAM Size: 4 GiB Channels: 1 Width: 64-bit Data Rate: 3200 MT/s

VirtualMemory physical capacity: 8588881920 num_ppages: 2096895
VirtualMemory page size: 4096 log2_page_size: 12

CPU 0 runs /datasets/cs240c-wi22-a00-public/data/Assignment2/soplex_205B.trace.xz
CPU 0 Bimodal branch predictor
Basic BTB sets: 1024 ways: 8 indirect buffer size: 4096 RAS size: 64
Initialize Hawkeye state
Heartbeat CPU 0 instructions: 10000003 cycles: 2865173 heartbeat IPC: 3.49019 cumulative IPC: 3.49019 (Simulation time: 0 hr 0 min 35 sec) 

Warmup complete CPU 0 instructions: 10000003 cycles: 2865173 (Simulation time: 0 hr 0 min 35 sec) 

Heartbeat CPU 0 instructions: 20000004 cycles: 47094309 heartbeat IPC: 0.226095 cumulative IPC: 0.226095 (Simulation time: 0 hr 3 min 40 sec) 
Heartbeat CPU 0 instructions: 30000004 cycles: 82372472 heartbeat IPC: 0.283461 cumulative IPC: 0.251549 (Simulation time: 0 hr 5 min 16 sec) 
Heartbeat CPU 0 instructions: 40000004 cycles: 109576567 heartbeat IPC: 0.367592 cumulative IPC: 0.281132 (Simulation time: 0 hr 6 min 55 sec) 
Heartbeat CPU 0 instructions: 50000001 cycles: 140513068 heartbeat IPC: 0.323243 cumulative IPC: 0.290597 (Simulation time: 0 hr 8 min 41 sec) 
Heartbeat CPU 0 instructions: 60000000 cycles: 167295541 heartbeat IPC: 0.373378 cumulative IPC: 0.30408 (Simulation time: 0 hr 10 min 13 sec) 
Heartbeat CPU 0 instructions: 70000000 cycles: 197922369 heartbeat IPC: 0.326511 cumulative IPC: 0.307602 (Simulation time: 0 hr 12 min 2 sec) 
Heartbeat CPU 0 instructions: 80000003 cycles: 225731332 heartbeat IPC: 0.359596 cumulative IPC: 0.31409 (Simulation time: 0 hr 13 min 33 sec) 
Heartbeat CPU 0 instructions: 90000000 cycles: 258435353 heartbeat IPC: 0.305773 cumulative IPC: 0.313026 (Simulation time: 0 hr 15 min 26 sec) 
Heartbeat CPU 0 instructions: 100000002 cycles: 285794717 heartbeat IPC: 0.365506 cumulative IPC: 0.3181 (Simulation time: 0 hr 16 min 55 sec) 
Heartbeat CPU 0 instructions: 110000000 cycles: 339737596 heartbeat IPC: 0.185381 cumulative IPC: 0.296848 (Simulation time: 0 hr 19 min 45 sec) 
Finished CPU 0 instructions: 100000002 cycles: 336872424 cumulative IPC: 0.296848 (Simulation time: 0 hr 19 min 45 sec) 

ChampSim completed all CPUs

Region of Interest Statistics

CPU 0 cumulative IPC: 0.296848 instructions: 100000002 cycles: 336872424
cpu0_DTLB TOTAL     ACCESS:   22256713  HIT:   21294330  MISS:     962383
cpu0_DTLB LOAD      ACCESS:   16520238  HIT:   15780637  MISS:     739601
cpu0_DTLB RFO       ACCESS:    5736475  HIT:    5513693  MISS:     222782
cpu0_DTLB PREFETCH  ACCESS:          0  HIT:          0  MISS:          0
cpu0_DTLB WRITEBACK ACCESS:          0  HIT:          0  MISS:          0
cpu0_DTLB TRANSLATION ACCESS:          0  HIT:          0  MISS:          0
cpu0_DTLB PREFETCH  REQUESTED:          0  ISSUED:          0  USEFUL:          0  USELESS:          0
cpu0_DTLB AVERAGE MISS LATENCY: 16.4001 cycles
cpu0_ITLB TOTAL     ACCESS:    8006048  HIT:    8006031  MISS:         17
cpu0_ITLB LOAD      ACCESS:    8006048  HIT:    8006031  MISS:         17
cpu0_ITLB RFO       ACCESS:          0  HIT:          0  MISS:          0
cpu0_ITLB PREFETCH  ACCESS:          0  HIT:          0  MISS:          0
cpu0_ITLB WRITEBACK ACCESS:          0  HIT:          0  MISS:          0
cpu0_ITLB TRANSLATION ACCESS:          0  HIT:          0  MISS:          0
cpu0_ITLB PREFETCH  REQUESTED:          0  ISSUED:          0  USEFUL:          0  USELESS:          0
cpu0_ITLB AVERAGE MISS LATENCY: 333.235 cycles
cpu0_L1I TOTAL     ACCESS:     820094  HIT:     819321  MISS:        773
cpu0_L1I LOAD      ACCESS:     820094  HIT:     819321  MISS:        773
cpu0_L1I RFO       ACCESS:          0  HIT:          0  MISS:          0
cpu0_L1I PREFETCH  ACCESS:          0  HIT:          0  MISS:          0
cpu0_L1I WRITEBACK ACCESS:          0  HIT:          0  MISS:          0
cpu0_L1I TRANSLATION ACCESS:          0  HIT:          0  MISS:          0
cpu0_L1I PREFETCH  REQUESTED:          0  ISSUED:          0  USEFUL:          0  USELESS:          0
cpu0_L1I AVERAGE MISS LATENCY: 324.587 cycles
cpu0_STLB TOTAL     ACCESS:     962400  HIT:     806838  MISS:     155562
cpu0_STLB LOAD      ACCESS:     739618  HIT:     594883  MISS:     144735
cpu0_STLB RFO       ACCESS:     222782  HIT:     211955  MISS:      10827
cpu0_STLB PREFETCH  ACCESS:          0  HIT:          0  MISS:          0
cpu0_STLB WRITEBACK ACCESS:          0  HIT:          0  MISS:          0
cpu0_STLB TRANSLATION ACCESS:          0  HIT:          0  MISS:          0
cpu0_STLB PREFETCH  REQUESTED:          0  ISSUED:          0  USEFUL:          0  USELESS:          0
cpu0_STLB AVERAGE MISS LATENCY: 44.885 cycles
cpu0_L1D TOTAL     ACCESS:   19236849  HIT:   13446211  MISS:    5790638
cpu0_L1D LOAD      ACCESS:   12674465  HIT:    7839820  MISS:    4834645
cpu0_L1D RFO       ACCESS:    6410760  HIT:    5460410  MISS:     950350
cpu0_L1D PREFETCH  ACCESS:          0  HIT:          0  MISS:          0
cpu0_L1D WRITEBACK ACCESS:          0  HIT:          0  MISS:          0
cpu0_L1D TRANSLATION ACCESS:     151624  HIT:     145981  MISS:       5643
cpu0_L1D PREFETCH  REQUESTED:          0  ISSUED:          0  USEFUL:          0  USELESS:          0
cpu0_L1D AVERAGE MISS LATENCY: 226.506 cycles
cpu0_L2C TOTAL     ACCESS:    8361040  HIT:    3855057  MISS:    4505983
cpu0_L2C LOAD      ACCESS:    4835003  HIT:    1131258  MISS:    3703745
cpu0_L2C RFO       ACCESS:     950280  HIT:     148933  MISS:     801347
cpu0_L2C PREFETCH  ACCESS:          0  HIT:          0  MISS:          0
cpu0_L2C WRITEBACK ACCESS:    2570114  HIT:    2570042  MISS:         72
cpu0_L2C TRANSLATION ACCESS:       5643  HIT:       4824  MISS:        819
cpu0_L2C PREFETCH  REQUESTED:          0  ISSUED:          0  USEFUL:          0  USELESS:          0
cpu0_L2C AVERAGE MISS LATENCY: 276.79 cycles
LLC TOTAL     ACCESS:    6406231  HIT:    3209240  MISS:    3196991
LLC LOAD      ACCESS:    3703723  HIT:    1445298  MISS:    2258425
LLC RFO       ACCESS:     801342  HIT:     290917  MISS:     510425
LLC PREFETCH  ACCESS:          0  HIT:          0  MISS:          0
LLC WRITEBACK ACCESS:    1900347  HIT:    1472614  MISS:     427733
LLC TRANSLATION ACCESS:        819  HIT:        411  MISS:        408
LLC PREFETCH  REQUESTED:          0  ISSUED:          0  USEFUL:          0  USELESS:          0
LLC AVERAGE MISS LATENCY: 359.917 cycles
OPTgen accesses: 77388
OPTgen hits: 37579
OPTgen hit rate: 48.5592



DRAM Statistics
 CHANNEL 0
 RQ ROW_BUFFER_HIT:     287761  ROW_BUFFER_MISS:    2479216
 DBUS AVG_CONGESTED_CYCLE:    3.95657
 WQ ROW_BUFFER_HIT:      44930  ROW_BUFFER_MISS:     997353  FULL:     583799


CPU 0 Branch Prediction Accuracy: 93.3985% MPKI: 13.5305 Average ROB Occupancy at Mispredict: 47.7336
Branch type MPKI
BRANCH_DIRECT_JUMP: 0.00081
BRANCH_INDIRECT: 0.00022
BRANCH_CONDITIONAL: 13.5274
BRANCH_DIRECT_CALL: 0.00058
BRANCH_INDIRECT_CALL: 0.00056
BRANCH_RETURN: 0.00094

