
*** ChampSim Multicore Out-of-Order Simulator ***

Warmup Instructions: 10000000
Simulation Instructions: 100000000
Number of CPUs: 1
Off-chip DRAM Size: 4 GiB Channels: 1 Width: 64-bit Data Rate: 3200 MT/s

VirtualMemory physical capacity: 8588881920 num_ppages: 2096895
VirtualMemory page size: 4096 log2_page_size: 12

CPU 0 runs /datasets/cs240c-wi22-a00-public/data/Assignment2/astar_313B.trace.xz
CPU 0 Bimodal branch predictor
Basic BTB sets: 1024 ways: 8 indirect buffer size: 4096 RAS size: 64
Initialize Hawkeye state
Heartbeat CPU 0 instructions: 10000003 cycles: 3956320 heartbeat IPC: 2.5276 cumulative IPC: 2.5276 (Simulation time: 0 hr 0 min 51 sec) 

Warmup complete CPU 0 instructions: 10000003 cycles: 3956320 (Simulation time: 0 hr 0 min 51 sec) 

Heartbeat CPU 0 instructions: 20000004 cycles: 57680763 heartbeat IPC: 0.186135 cumulative IPC: 0.186135 (Simulation time: 0 hr 2 min 47 sec) 
Heartbeat CPU 0 instructions: 30000001 cycles: 114463856 heartbeat IPC: 0.176109 cumulative IPC: 0.180983 (Simulation time: 0 hr 5 min 18 sec) 
Heartbeat CPU 0 instructions: 40000000 cycles: 173626580 heartbeat IPC: 0.169025 cumulative IPC: 0.176814 (Simulation time: 0 hr 7 min 51 sec) 
Heartbeat CPU 0 instructions: 50000001 cycles: 227241549 heartbeat IPC: 0.186515 cumulative IPC: 0.179143 (Simulation time: 0 hr 9 min 51 sec) 
Heartbeat CPU 0 instructions: 60000000 cycles: 282074976 heartbeat IPC: 0.18237 cumulative IPC: 0.179779 (Simulation time: 0 hr 12 min 4 sec) 
Heartbeat CPU 0 instructions: 70000000 cycles: 338392080 heartbeat IPC: 0.177566 cumulative IPC: 0.179407 (Simulation time: 0 hr 14 min 19 sec) 
Heartbeat CPU 0 instructions: 80000000 cycles: 394206596 heartbeat IPC: 0.179165 cumulative IPC: 0.179372 (Simulation time: 0 hr 16 min 20 sec) 
Heartbeat CPU 0 instructions: 90000001 cycles: 447620885 heartbeat IPC: 0.187216 cumulative IPC: 0.180316 (Simulation time: 0 hr 18 min 22 sec) 
Heartbeat CPU 0 instructions: 100000000 cycles: 501264881 heartbeat IPC: 0.186414 cumulative IPC: 0.180974 (Simulation time: 0 hr 20 min 21 sec) 
Heartbeat CPU 0 instructions: 110000000 cycles: 556496804 heartbeat IPC: 0.181055 cumulative IPC: 0.180982 (Simulation time: 0 hr 22 min 37 sec) 
Finished CPU 0 instructions: 100000001 cycles: 552540485 cumulative IPC: 0.180982 (Simulation time: 0 hr 22 min 37 sec) 

ChampSim completed all CPUs

Region of Interest Statistics

CPU 0 cumulative IPC: 0.180982 instructions: 100000001 cycles: 552540485
cpu0_DTLB TOTAL     ACCESS:   34361817  HIT:   30543074  MISS:    3818743
cpu0_DTLB LOAD      ACCESS:   26417249  HIT:   23795506  MISS:    2621743
cpu0_DTLB RFO       ACCESS:    7944568  HIT:    6747568  MISS:    1197000
cpu0_DTLB PREFETCH  ACCESS:          0  HIT:          0  MISS:          0
cpu0_DTLB WRITEBACK ACCESS:          0  HIT:          0  MISS:          0
cpu0_DTLB TRANSLATION ACCESS:          0  HIT:          0  MISS:          0
cpu0_DTLB PREFETCH  REQUESTED:          0  ISSUED:          0  USEFUL:          0  USELESS:          0
cpu0_DTLB AVERAGE MISS LATENCY: 143.404 cycles
cpu0_ITLB TOTAL     ACCESS:   11440172  HIT:   11440172  MISS:          0
cpu0_ITLB LOAD      ACCESS:   11440172  HIT:   11440172  MISS:          0
cpu0_ITLB RFO       ACCESS:          0  HIT:          0  MISS:          0
cpu0_ITLB PREFETCH  ACCESS:          0  HIT:          0  MISS:          0
cpu0_ITLB WRITEBACK ACCESS:          0  HIT:          0  MISS:          0
cpu0_ITLB TRANSLATION ACCESS:          0  HIT:          0  MISS:          0
cpu0_ITLB PREFETCH  REQUESTED:          0  ISSUED:          0  USEFUL:          0  USELESS:          0
cpu0_ITLB AVERAGE MISS LATENCY: -nan cycles
cpu0_L1I TOTAL     ACCESS:        129  HIT:        126  MISS:          3
cpu0_L1I LOAD      ACCESS:        129  HIT:        126  MISS:          3
cpu0_L1I RFO       ACCESS:          0  HIT:          0  MISS:          0
cpu0_L1I PREFETCH  ACCESS:          0  HIT:          0  MISS:          0
cpu0_L1I WRITEBACK ACCESS:          0  HIT:          0  MISS:          0
cpu0_L1I TRANSLATION ACCESS:          0  HIT:          0  MISS:          0
cpu0_L1I PREFETCH  REQUESTED:          0  ISSUED:          0  USEFUL:          0  USELESS:          0
cpu0_L1I AVERAGE MISS LATENCY: 197 cycles
cpu0_STLB TOTAL     ACCESS:    3818743  HIT:    1896154  MISS:    1922589
cpu0_STLB LOAD      ACCESS:    2621743  HIT:    1784376  MISS:     837367
cpu0_STLB RFO       ACCESS:    1197000  HIT:     111778  MISS:    1085222
cpu0_STLB PREFETCH  ACCESS:          0  HIT:          0  MISS:          0
cpu0_STLB WRITEBACK ACCESS:          0  HIT:          0  MISS:          0
cpu0_STLB TRANSLATION ACCESS:          0  HIT:          0  MISS:          0
cpu0_STLB PREFETCH  REQUESTED:          0  ISSUED:          0  USEFUL:          0  USELESS:          0
cpu0_STLB AVERAGE MISS LATENCY: 266.767 cycles
cpu0_L1D TOTAL     ACCESS:   35962822  HIT:   30110065  MISS:    5852757
cpu0_L1D LOAD      ACCESS:   24415088  HIT:   20484123  MISS:    3930965
cpu0_L1D RFO       ACCESS:   10121157  HIT:    8210497  MISS:    1910660
cpu0_L1D PREFETCH  ACCESS:          0  HIT:          0  MISS:          0
cpu0_L1D WRITEBACK ACCESS:          0  HIT:          0  MISS:          0
cpu0_L1D TRANSLATION ACCESS:    1426577  HIT:    1415445  MISS:      11132
cpu0_L1D PREFETCH  REQUESTED:          0  ISSUED:          0  USEFUL:          0  USELESS:          0
cpu0_L1D AVERAGE MISS LATENCY: 350.577 cycles
cpu0_L2C TOTAL     ACCESS:    8697468  HIT:    4509744  MISS:    4187724
cpu0_L2C LOAD      ACCESS:    3930957  HIT:    1549506  MISS:    2381451
cpu0_L2C RFO       ACCESS:    1910660  HIT:     106293  MISS:    1804367
cpu0_L2C PREFETCH  ACCESS:          0  HIT:          0  MISS:          0
cpu0_L2C WRITEBACK ACCESS:    2844719  HIT:    2844549  MISS:        170
cpu0_L2C TRANSLATION ACCESS:      11132  HIT:       9396  MISS:       1736
cpu0_L2C PREFETCH  REQUESTED:          0  ISSUED:          0  USEFUL:          0  USELESS:          0
cpu0_L2C AVERAGE MISS LATENCY: 474.557 cycles
LLC TOTAL     ACCESS:    6918032  HIT:    2667534  MISS:    4250498
LLC LOAD      ACCESS:    2381451  HIT:     532759  MISS:    1848692
LLC RFO       ACCESS:    1804366  HIT:     789119  MISS:    1015247
LLC PREFETCH  ACCESS:          0  HIT:          0  MISS:          0
LLC WRITEBACK ACCESS:    2730479  HIT:    1344718  MISS:    1385761
LLC TRANSLATION ACCESS:       1736  HIT:        938  MISS:        798
LLC PREFETCH  REQUESTED:          0  ISSUED:          0  USEFUL:          0  USELESS:          0
LLC AVERAGE MISS LATENCY: 446.857 cycles
OPTgen accesses: 73541
OPTgen hits: 11798
OPTgen hit rate: 16.0428



DRAM Statistics
 CHANNEL 0
 RQ ROW_BUFFER_HIT:      23299  ROW_BUFFER_MISS:    2841246
 DBUS AVG_CONGESTED_CYCLE:    3.99778
 WQ ROW_BUFFER_HIT:     183909  ROW_BUFFER_MISS:    1287489  FULL:      78992


CPU 0 Branch Prediction Accuracy: 88.672% MPKI: 23.9003 Average ROB Occupancy at Mispredict: 22.8512
Branch type MPKI
BRANCH_DIRECT_JUMP: 1e-05
BRANCH_INDIRECT: 0
BRANCH_CONDITIONAL: 23.8999
BRANCH_DIRECT_CALL: 0
BRANCH_INDIRECT_CALL: 0.00038
BRANCH_RETURN: 0

