
*** ChampSim Multicore Out-of-Order Simulator ***

Warmup Instructions: 10000000
Simulation Instructions: 100000000
Number of CPUs: 1
Off-chip DRAM Size: 4 GiB Channels: 1 Width: 64-bit Data Rate: 3200 MT/s

VirtualMemory physical capacity: 8588881920 num_ppages: 2096895
VirtualMemory page size: 4096 log2_page_size: 12

CPU 0 runs /datasets/cs240c-wi22-a00-public/data/Assignment2/calculix_3812B.trace.xz
CPU 0 Bimodal branch predictor
Basic BTB sets: 1024 ways: 8 indirect buffer size: 4096 RAS size: 64
Initialize Hawkeye state
Heartbeat CPU 0 instructions: 10000000 cycles: 2819851 heartbeat IPC: 3.54629 cumulative IPC: 3.54629 (Simulation time: 0 hr 0 min 32 sec) 

Warmup complete CPU 0 instructions: 10000004 cycles: 2819852 (Simulation time: 0 hr 0 min 32 sec) 

Heartbeat CPU 0 instructions: 20000004 cycles: 6556319 heartbeat IPC: 2.67633 cumulative IPC: 2.67633 (Simulation time: 0 hr 1 min 1 sec) 
Heartbeat CPU 0 instructions: 30000001 cycles: 10365411 heartbeat IPC: 2.6253 cumulative IPC: 2.65057 (Simulation time: 0 hr 1 min 29 sec) 
Heartbeat CPU 0 instructions: 40000000 cycles: 14188565 heartbeat IPC: 2.61564 cumulative IPC: 2.63882 (Simulation time: 0 hr 2 min 17 sec) 
Heartbeat CPU 0 instructions: 50000001 cycles: 18372670 heartbeat IPC: 2.39 cumulative IPC: 2.57188 (Simulation time: 0 hr 2 min 56 sec) 
Heartbeat CPU 0 instructions: 60000000 cycles: 22247994 heartbeat IPC: 2.58043 cumulative IPC: 2.57359 (Simulation time: 0 hr 3 min 25 sec) 
Heartbeat CPU 0 instructions: 70000000 cycles: 26121773 heartbeat IPC: 2.58146 cumulative IPC: 2.57489 (Simulation time: 0 hr 3 min 56 sec) 
Heartbeat CPU 0 instructions: 80000001 cycles: 29862225 heartbeat IPC: 2.67347 cumulative IPC: 2.58853 (Simulation time: 0 hr 4 min 36 sec) 
Heartbeat CPU 0 instructions: 90000004 cycles: 33926563 heartbeat IPC: 2.46043 cumulative IPC: 2.57179 (Simulation time: 0 hr 5 min 15 sec) 
Heartbeat CPU 0 instructions: 100000001 cycles: 37806348 heartbeat IPC: 2.57746 cumulative IPC: 2.57242 (Simulation time: 0 hr 5 min 45 sec) 
Heartbeat CPU 0 instructions: 110000002 cycles: 41462057 heartbeat IPC: 2.73545 cumulative IPC: 2.58784 (Simulation time: 0 hr 6 min 13 sec) 
Finished CPU 0 instructions: 100000003 cycles: 38642206 cumulative IPC: 2.58784 (Simulation time: 0 hr 6 min 13 sec) 

ChampSim completed all CPUs

Region of Interest Statistics

CPU 0 cumulative IPC: 2.58784 instructions: 100000003 cycles: 38642206
cpu0_DTLB TOTAL     ACCESS:   14463434  HIT:   14436153  MISS:      27281
cpu0_DTLB LOAD      ACCESS:   12804545  HIT:   12778373  MISS:      26172
cpu0_DTLB RFO       ACCESS:    1658889  HIT:    1657780  MISS:       1109
cpu0_DTLB PREFETCH  ACCESS:          0  HIT:          0  MISS:          0
cpu0_DTLB WRITEBACK ACCESS:          0  HIT:          0  MISS:          0
cpu0_DTLB TRANSLATION ACCESS:          0  HIT:          0  MISS:          0
cpu0_DTLB PREFETCH  REQUESTED:          0  ISSUED:          0  USEFUL:          0  USELESS:          0
cpu0_DTLB AVERAGE MISS LATENCY: 14.9803 cycles
cpu0_ITLB TOTAL     ACCESS:    5756397  HIT:    5756369  MISS:         28
cpu0_ITLB LOAD      ACCESS:    5756397  HIT:    5756369  MISS:         28
cpu0_ITLB RFO       ACCESS:          0  HIT:          0  MISS:          0
cpu0_ITLB PREFETCH  ACCESS:          0  HIT:          0  MISS:          0
cpu0_ITLB WRITEBACK ACCESS:          0  HIT:          0  MISS:          0
cpu0_ITLB TRANSLATION ACCESS:          0  HIT:          0  MISS:          0
cpu0_ITLB PREFETCH  REQUESTED:          0  ISSUED:          0  USEFUL:          0  USELESS:          0
cpu0_ITLB AVERAGE MISS LATENCY: 9 cycles
cpu0_L1I TOTAL     ACCESS:     869567  HIT:     868815  MISS:        752
cpu0_L1I LOAD      ACCESS:     869567  HIT:     868815  MISS:        752
cpu0_L1I RFO       ACCESS:          0  HIT:          0  MISS:          0
cpu0_L1I PREFETCH  ACCESS:          0  HIT:          0  MISS:          0
cpu0_L1I WRITEBACK ACCESS:          0  HIT:          0  MISS:          0
cpu0_L1I TRANSLATION ACCESS:          0  HIT:          0  MISS:          0
cpu0_L1I PREFETCH  REQUESTED:          0  ISSUED:          0  USEFUL:          0  USELESS:          0
cpu0_L1I AVERAGE MISS LATENCY: 70.0146 cycles
cpu0_STLB TOTAL     ACCESS:      27309  HIT:      26535  MISS:        774
cpu0_STLB LOAD      ACCESS:      26200  HIT:      25860  MISS:        340
cpu0_STLB RFO       ACCESS:       1109  HIT:        675  MISS:        434
cpu0_STLB PREFETCH  ACCESS:          0  HIT:          0  MISS:          0
cpu0_STLB WRITEBACK ACCESS:          0  HIT:          0  MISS:          0
cpu0_STLB TRANSLATION ACCESS:          0  HIT:          0  MISS:          0
cpu0_STLB PREFETCH  REQUESTED:          0  ISSUED:          0  USEFUL:          0  USELESS:          0
cpu0_STLB AVERAGE MISS LATENCY: 210.716 cycles
cpu0_L1D TOTAL     ACCESS:   16695429  HIT:   15368137  MISS:    1327292
cpu0_L1D LOAD      ACCESS:   11977485  HIT:   10702395  MISS:    1275090
cpu0_L1D RFO       ACCESS:    4717173  HIT:    4665018  MISS:      52155
cpu0_L1D PREFETCH  ACCESS:          0  HIT:          0  MISS:          0
cpu0_L1D WRITEBACK ACCESS:          0  HIT:          0  MISS:          0
cpu0_L1D TRANSLATION ACCESS:        771  HIT:        724  MISS:         47
cpu0_L1D PREFETCH  REQUESTED:          0  ISSUED:          0  USEFUL:          0  USELESS:          0
cpu0_L1D AVERAGE MISS LATENCY: 34.7883 cycles
cpu0_L2C TOTAL     ACCESS:    1837947  HIT:    1545989  MISS:     291958
cpu0_L2C LOAD      ACCESS:    1275831  HIT:    1023139  MISS:     252692
cpu0_L2C RFO       ACCESS:      52155  HIT:      13803  MISS:      38352
cpu0_L2C PREFETCH  ACCESS:          0  HIT:          0  MISS:          0
cpu0_L2C WRITEBACK ACCESS:     509914  HIT:     509016  MISS:        898
cpu0_L2C TRANSLATION ACCESS:         47  HIT:         31  MISS:         16
cpu0_L2C PREFETCH  REQUESTED:          0  ISSUED:          0  USEFUL:          0  USELESS:          0
cpu0_L2C AVERAGE MISS LATENCY: 107.593 cycles
LLC TOTAL     ACCESS:     430990  HIT:     335855  MISS:      95135
LLC LOAD      ACCESS:     252686  HIT:     197639  MISS:      55047
LLC RFO       ACCESS:      38346  HIT:       7307  MISS:      31039
LLC PREFETCH  ACCESS:          0  HIT:          0  MISS:          0
LLC WRITEBACK ACCESS:     139942  HIT:     130897  MISS:       9045
LLC TRANSLATION ACCESS:         16  HIT:         12  MISS:          4
LLC PREFETCH  REQUESTED:          0  ISSUED:          0  USEFUL:          0  USELESS:          0
LLC AVERAGE MISS LATENCY: 265.408 cycles
OPTgen accesses: 5286
OPTgen hits: 4156
OPTgen hit rate: 78.6228



DRAM Statistics
 CHANNEL 0
 RQ ROW_BUFFER_HIT:      42384  ROW_BUFFER_MISS:      43627
 DBUS AVG_CONGESTED_CYCLE:     3.9599
 WQ ROW_BUFFER_HIT:       5752  ROW_BUFFER_MISS:      31153  FULL:      49563


CPU 0 Branch Prediction Accuracy: 96.6151% MPKI: 1.9742 Average ROB Occupancy at Mispredict: 164.77
Branch type MPKI
BRANCH_DIRECT_JUMP: 0.00017
BRANCH_INDIRECT: 0.00062
BRANCH_CONDITIONAL: 1.97308
BRANCH_DIRECT_CALL: 0.00017
BRANCH_INDIRECT_CALL: 0
BRANCH_RETURN: 0.00016

