
*** ChampSim Multicore Out-of-Order Simulator ***

Warmup Instructions: 10000000
Simulation Instructions: 100000000
Number of CPUs: 1
Off-chip DRAM Size: 4 GiB Channels: 1 Width: 64-bit Data Rate: 3200 MT/s

VirtualMemory physical capacity: 8588881920 num_ppages: 2096895
VirtualMemory page size: 4096 log2_page_size: 12

CPU 0 runs /datasets/cs240c-wi22-a00-public/data/Assignment2/zeusmp_600B.trace.xz
CPU 0 Bimodal branch predictor
Basic BTB sets: 1024 ways: 8 indirect buffer size: 4096 RAS size: 64
Initialize Hawkeye state
Heartbeat CPU 0 instructions: 10000001 cycles: 2573841 heartbeat IPC: 3.88524 cumulative IPC: 3.88524 (Simulation time: 0 hr 0 min 23 sec) 

Warmup complete CPU 0 instructions: 10000001 cycles: 2573841 (Simulation time: 0 hr 0 min 23 sec) 

Heartbeat CPU 0 instructions: 20000001 cycles: 7442170 heartbeat IPC: 2.05409 cumulative IPC: 2.05409 (Simulation time: 0 hr 0 min 57 sec) 
Heartbeat CPU 0 instructions: 30000004 cycles: 12840052 heartbeat IPC: 1.85258 cumulative IPC: 1.94814 (Simulation time: 0 hr 1 min 32 sec) 
Heartbeat CPU 0 instructions: 40000000 cycles: 18352278 heartbeat IPC: 1.81415 cumulative IPC: 1.90133 (Simulation time: 0 hr 2 min 6 sec) 
Heartbeat CPU 0 instructions: 50000001 cycles: 23856257 heartbeat IPC: 1.81687 cumulative IPC: 1.87949 (Simulation time: 0 hr 2 min 42 sec) 
Heartbeat CPU 0 instructions: 60000000 cycles: 29363667 heartbeat IPC: 1.81574 cumulative IPC: 1.86638 (Simulation time: 0 hr 3 min 18 sec) 
Heartbeat CPU 0 instructions: 70000003 cycles: 34872658 heartbeat IPC: 1.81521 cumulative IPC: 1.85765 (Simulation time: 0 hr 3 min 52 sec) 
Heartbeat CPU 0 instructions: 80000000 cycles: 40369325 heartbeat IPC: 1.81928 cumulative IPC: 1.85207 (Simulation time: 0 hr 4 min 28 sec) 
Heartbeat CPU 0 instructions: 90000001 cycles: 45881146 heartbeat IPC: 1.81428 cumulative IPC: 1.84726 (Simulation time: 0 hr 5 min 2 sec) 
Heartbeat CPU 0 instructions: 100000001 cycles: 51397387 heartbeat IPC: 1.81283 cumulative IPC: 1.84337 (Simulation time: 0 hr 5 min 37 sec) 
Heartbeat CPU 0 instructions: 110000003 cycles: 56908238 heartbeat IPC: 1.8146 cumulative IPC: 1.84045 (Simulation time: 0 hr 6 min 14 sec) 
Finished CPU 0 instructions: 100000002 cycles: 54334397 cumulative IPC: 1.84045 (Simulation time: 0 hr 6 min 14 sec) 

ChampSim completed all CPUs

Region of Interest Statistics

CPU 0 cumulative IPC: 1.84045 instructions: 100000002 cycles: 54334397
cpu0_DTLB TOTAL     ACCESS:   17107014  HIT:   16951646  MISS:     155368
cpu0_DTLB LOAD      ACCESS:   12988217  HIT:   12859891  MISS:     128326
cpu0_DTLB RFO       ACCESS:    4118797  HIT:    4091755  MISS:      27042
cpu0_DTLB PREFETCH  ACCESS:          0  HIT:          0  MISS:          0
cpu0_DTLB WRITEBACK ACCESS:          0  HIT:          0  MISS:          0
cpu0_DTLB TRANSLATION ACCESS:          0  HIT:          0  MISS:          0
cpu0_DTLB PREFETCH  REQUESTED:          0  ISSUED:          0  USEFUL:          0  USELESS:          0
cpu0_DTLB AVERAGE MISS LATENCY: 15.465 cycles
cpu0_ITLB TOTAL     ACCESS:    2610806  HIT:    2610803  MISS:          3
cpu0_ITLB LOAD      ACCESS:    2610806  HIT:    2610803  MISS:          3
cpu0_ITLB RFO       ACCESS:          0  HIT:          0  MISS:          0
cpu0_ITLB PREFETCH  ACCESS:          0  HIT:          0  MISS:          0
cpu0_ITLB WRITEBACK ACCESS:          0  HIT:          0  MISS:          0
cpu0_ITLB TRANSLATION ACCESS:          0  HIT:          0  MISS:          0
cpu0_ITLB PREFETCH  REQUESTED:          0  ISSUED:          0  USEFUL:          0  USELESS:          0
cpu0_ITLB AVERAGE MISS LATENCY: 375.333 cycles
cpu0_L1I TOTAL     ACCESS:    5803773  HIT:    5803670  MISS:        103
cpu0_L1I LOAD      ACCESS:    5803773  HIT:    5803670  MISS:        103
cpu0_L1I RFO       ACCESS:          0  HIT:          0  MISS:          0
cpu0_L1I PREFETCH  ACCESS:          0  HIT:          0  MISS:          0
cpu0_L1I WRITEBACK ACCESS:          0  HIT:          0  MISS:          0
cpu0_L1I TRANSLATION ACCESS:          0  HIT:          0  MISS:          0
cpu0_L1I PREFETCH  REQUESTED:          0  ISSUED:          0  USEFUL:          0  USELESS:          0
cpu0_L1I AVERAGE MISS LATENCY: 253.592 cycles
cpu0_STLB TOTAL     ACCESS:     155371  HIT:     150380  MISS:       4991
cpu0_STLB LOAD      ACCESS:     128329  HIT:     123390  MISS:       4939
cpu0_STLB RFO       ACCESS:      27042  HIT:      26990  MISS:         52
cpu0_STLB PREFETCH  ACCESS:          0  HIT:          0  MISS:          0
cpu0_STLB WRITEBACK ACCESS:          0  HIT:          0  MISS:          0
cpu0_STLB TRANSLATION ACCESS:          0  HIT:          0  MISS:          0
cpu0_STLB PREFETCH  REQUESTED:          0  ISSUED:          0  USEFUL:          0  USELESS:          0
cpu0_STLB AVERAGE MISS LATENCY: 193.203 cycles
cpu0_L1D TOTAL     ACCESS:   20411194  HIT:   20090276  MISS:     320918
cpu0_L1D LOAD      ACCESS:   13174178  HIT:   12857034  MISS:     317144
cpu0_L1D RFO       ACCESS:    7232026  HIT:    7228579  MISS:       3447
cpu0_L1D PREFETCH  ACCESS:          0  HIT:          0  MISS:          0
cpu0_L1D WRITEBACK ACCESS:          0  HIT:          0  MISS:          0
cpu0_L1D TRANSLATION ACCESS:       4990  HIT:       4663  MISS:        327
cpu0_L1D PREFETCH  REQUESTED:          0  ISSUED:          0  USEFUL:          0  USELESS:          0
cpu0_L1D AVERAGE MISS LATENCY: 184.693 cycles
cpu0_L2C TOTAL     ACCESS:     383991  HIT:      66698  MISS:     317293
cpu0_L2C LOAD      ACCESS:     317247  HIT:       3425  MISS:     313822
cpu0_L2C RFO       ACCESS:       3447  HIT:          1  MISS:       3446
cpu0_L2C PREFETCH  ACCESS:          0  HIT:          0  MISS:          0
cpu0_L2C WRITEBACK ACCESS:      62970  HIT:      62970  MISS:          0
cpu0_L2C TRANSLATION ACCESS:        327  HIT:        302  MISS:         25
cpu0_L2C PREFETCH  REQUESTED:          0  ISSUED:          0  USEFUL:          0  USELESS:          0
cpu0_L2C AVERAGE MISS LATENCY: 175.743 cycles
LLC TOTAL     ACCESS:     380236  HIT:       9899  MISS:     370337
LLC LOAD      ACCESS:     313822  HIT:       2020  MISS:     311802
LLC RFO       ACCESS:       3446  HIT:          0  MISS:       3446
LLC PREFETCH  ACCESS:          0  HIT:          0  MISS:          0
LLC WRITEBACK ACCESS:      62943  HIT:       7868  MISS:      55075
LLC TRANSLATION ACCESS:         25  HIT:         11  MISS:         14
LLC PREFETCH  REQUESTED:          0  ISSUED:          0  USEFUL:          0  USELESS:          0
LLC AVERAGE MISS LATENCY: 132.579 cycles
OPTgen accesses: 5474
OPTgen hits: 334
OPTgen hit rate: 6.10157



DRAM Statistics
 CHANNEL 0
 RQ ROW_BUFFER_HIT:      61684  ROW_BUFFER_MISS:     253579
 DBUS AVG_CONGESTED_CYCLE:    3.74246
 WQ ROW_BUFFER_HIT:      21783  ROW_BUFFER_MISS:      40412  FULL:          0


CPU 0 Branch Prediction Accuracy: 96.8332% MPKI: 1.13776 Average ROB Occupancy at Mispredict: 151.999
Branch type MPKI
BRANCH_DIRECT_JUMP: 3e-05
BRANCH_INDIRECT: 0
BRANCH_CONDITIONAL: 1.13771
BRANCH_DIRECT_CALL: 1e-05
BRANCH_INDIRECT_CALL: 0
BRANCH_RETURN: 1e-05

