
*** ChampSim Multicore Out-of-Order Simulator ***

Warmup Instructions: 10000000
Simulation Instructions: 100000000
Number of CPUs: 1
Off-chip DRAM Size: 4 GiB Channels: 1 Width: 64-bit Data Rate: 3200 MT/s

VirtualMemory physical capacity: 8588881920 num_ppages: 2096895
VirtualMemory page size: 4096 log2_page_size: 12

CPU 0 runs /datasets/cs240c-wi22-a00-public/data/Assignment2/wrf_1228B.trace.xz
CPU 0 Bimodal branch predictor
Basic BTB sets: 1024 ways: 8 indirect buffer size: 4096 RAS size: 64
Initialize Hawkeye state
Heartbeat CPU 0 instructions: 10000001 cycles: 3904489 heartbeat IPC: 2.56115 cumulative IPC: 2.56115 (Simulation time: 0 hr 0 min 50 sec) 

Warmup complete CPU 0 instructions: 10000001 cycles: 3904489 (Simulation time: 0 hr 0 min 50 sec) 

Heartbeat CPU 0 instructions: 20000001 cycles: 12241367 heartbeat IPC: 1.19949 cumulative IPC: 1.19949 (Simulation time: 0 hr 1 min 53 sec) 
Heartbeat CPU 0 instructions: 30000003 cycles: 24657448 heartbeat IPC: 0.805407 cumulative IPC: 0.963718 (Simulation time: 0 hr 3 min 15 sec) 
Heartbeat CPU 0 instructions: 40000000 cycles: 37890270 heartbeat IPC: 0.755696 cumulative IPC: 0.882722 (Simulation time: 0 hr 4 min 45 sec) 
Heartbeat CPU 0 instructions: 50000001 cycles: 46930907 heartbeat IPC: 1.10612 cumulative IPC: 0.929661 (Simulation time: 0 hr 5 min 46 sec) 
Heartbeat CPU 0 instructions: 60000000 cycles: 57137940 heartbeat IPC: 0.979717 cumulative IPC: 0.939259 (Simulation time: 0 hr 6 min 55 sec) 
Heartbeat CPU 0 instructions: 70000001 cycles: 68507900 heartbeat IPC: 0.879511 cumulative IPC: 0.928744 (Simulation time: 0 hr 7 min 59 sec) 
Heartbeat CPU 0 instructions: 80000004 cycles: 78217893 heartbeat IPC: 1.02987 cumulative IPC: 0.941957 (Simulation time: 0 hr 8 min 48 sec) 
Heartbeat CPU 0 instructions: 90000001 cycles: 87902888 heartbeat IPC: 1.03252 cumulative IPC: 0.952399 (Simulation time: 0 hr 9 min 35 sec) 
Heartbeat CPU 0 instructions: 100000002 cycles: 97581228 heartbeat IPC: 1.03324 cumulative IPC: 0.960751 (Simulation time: 0 hr 10 min 22 sec) 
Heartbeat CPU 0 instructions: 110000000 cycles: 107251391 heartbeat IPC: 1.03411 cumulative IPC: 0.967615 (Simulation time: 0 hr 11 min 9 sec) 
Finished CPU 0 instructions: 100000004 cycles: 103346903 cumulative IPC: 0.967615 (Simulation time: 0 hr 11 min 9 sec) 

ChampSim completed all CPUs

Region of Interest Statistics

CPU 0 cumulative IPC: 0.967615 instructions: 100000004 cycles: 103346903
cpu0_DTLB TOTAL     ACCESS:   19672627  HIT:   19576390  MISS:      96237
cpu0_DTLB LOAD      ACCESS:   17661870  HIT:   17579941  MISS:      81929
cpu0_DTLB RFO       ACCESS:    2010757  HIT:    1996449  MISS:      14308
cpu0_DTLB PREFETCH  ACCESS:          0  HIT:          0  MISS:          0
cpu0_DTLB WRITEBACK ACCESS:          0  HIT:          0  MISS:          0
cpu0_DTLB TRANSLATION ACCESS:          0  HIT:          0  MISS:          0
cpu0_DTLB PREFETCH  REQUESTED:          0  ISSUED:          0  USEFUL:          0  USELESS:          0
cpu0_DTLB AVERAGE MISS LATENCY: 20.0863 cycles
cpu0_ITLB TOTAL     ACCESS:    4200068  HIT:    4200056  MISS:         12
cpu0_ITLB LOAD      ACCESS:    4200068  HIT:    4200056  MISS:         12
cpu0_ITLB RFO       ACCESS:          0  HIT:          0  MISS:          0
cpu0_ITLB PREFETCH  ACCESS:          0  HIT:          0  MISS:          0
cpu0_ITLB WRITEBACK ACCESS:          0  HIT:          0  MISS:          0
cpu0_ITLB TRANSLATION ACCESS:          0  HIT:          0  MISS:          0
cpu0_ITLB PREFETCH  REQUESTED:          0  ISSUED:          0  USEFUL:          0  USELESS:          0
cpu0_ITLB AVERAGE MISS LATENCY: 234.417 cycles
cpu0_L1I TOTAL     ACCESS:    6672229  HIT:    6671481  MISS:        748
cpu0_L1I LOAD      ACCESS:    6672229  HIT:    6671481  MISS:        748
cpu0_L1I RFO       ACCESS:          0  HIT:          0  MISS:          0
cpu0_L1I PREFETCH  ACCESS:          0  HIT:          0  MISS:          0
cpu0_L1I WRITEBACK ACCESS:          0  HIT:          0  MISS:          0
cpu0_L1I TRANSLATION ACCESS:          0  HIT:          0  MISS:          0
cpu0_L1I PREFETCH  REQUESTED:          0  ISSUED:          0  USEFUL:          0  USELESS:          0
cpu0_L1I AVERAGE MISS LATENCY: 351.139 cycles
cpu0_STLB TOTAL     ACCESS:      96249  HIT:      86695  MISS:       9554
cpu0_STLB LOAD      ACCESS:      81941  HIT:      75033  MISS:       6908
cpu0_STLB RFO       ACCESS:      14308  HIT:      11662  MISS:       2646
cpu0_STLB PREFETCH  ACCESS:          0  HIT:          0  MISS:          0
cpu0_STLB WRITEBACK ACCESS:          0  HIT:          0  MISS:          0
cpu0_STLB TRANSLATION ACCESS:          0  HIT:          0  MISS:          0
cpu0_STLB PREFETCH  REQUESTED:          0  ISSUED:          0  USEFUL:          0  USELESS:          0
cpu0_STLB AVERAGE MISS LATENCY: 111.936 cycles
cpu0_L1D TOTAL     ACCESS:   18878681  HIT:   17520263  MISS:    1358418
cpu0_L1D LOAD      ACCESS:   14828741  HIT:   13729677  MISS:    1099064
cpu0_L1D RFO       ACCESS:    4040396  HIT:    3781828  MISS:     258568
cpu0_L1D PREFETCH  ACCESS:          0  HIT:          0  MISS:          0
cpu0_L1D WRITEBACK ACCESS:          0  HIT:          0  MISS:          0
cpu0_L1D TRANSLATION ACCESS:       9544  HIT:       8758  MISS:        786
cpu0_L1D PREFETCH  REQUESTED:          0  ISSUED:          0  USEFUL:          0  USELESS:          0
cpu0_L1D AVERAGE MISS LATENCY: 216.681 cycles
cpu0_L2C TOTAL     ACCESS:    1836383  HIT:     802944  MISS:    1033439
cpu0_L2C LOAD      ACCESS:    1099794  HIT:     287171  MISS:     812623
cpu0_L2C RFO       ACCESS:     258566  HIT:      39549  MISS:     219017
cpu0_L2C PREFETCH  ACCESS:          0  HIT:          0  MISS:          0
cpu0_L2C WRITEBACK ACCESS:     477237  HIT:     475551  MISS:       1686
cpu0_L2C TRANSLATION ACCESS:        786  HIT:        673  MISS:        113
cpu0_L2C PREFETCH  REQUESTED:          0  ISSUED:          0  USEFUL:          0  USELESS:          0
cpu0_L2C AVERAGE MISS LATENCY: 270.585 cycles
LLC TOTAL     ACCESS:    1463806  HIT:     386326  MISS:    1077480
LLC LOAD      ACCESS:     812623  HIT:     146413  MISS:     666210
LLC RFO       ACCESS:     219017  HIT:      43011  MISS:     176006
LLC PREFETCH  ACCESS:          0  HIT:          0  MISS:          0
LLC WRITEBACK ACCESS:     432053  HIT:     196862  MISS:     235191
LLC TRANSLATION ACCESS:        113  HIT:         40  MISS:         73
LLC PREFETCH  REQUESTED:          0  ISSUED:          0  USEFUL:          0  USELESS:          0
LLC AVERAGE MISS LATENCY: 239.415 cycles
OPTgen accesses: 20219
OPTgen hits: 5852
OPTgen hit rate: 28.9431



DRAM Statistics
 CHANNEL 0
 RQ ROW_BUFFER_HIT:      87144  ROW_BUFFER_MISS:     754890
 DBUS AVG_CONGESTED_CYCLE:     3.9308
 WQ ROW_BUFFER_HIT:      31818  ROW_BUFFER_MISS:     292935  FULL:       1567


CPU 0 Branch Prediction Accuracy: 97.4481% MPKI: 2.04611 Average ROB Occupancy at Mispredict: 260.532
Branch type MPKI
BRANCH_DIRECT_JUMP: 0.00028
BRANCH_INDIRECT: 0
BRANCH_CONDITIONAL: 2.0456
BRANCH_DIRECT_CALL: 0.00011
BRANCH_INDIRECT_CALL: 0
BRANCH_RETURN: 0.00012

