
*** ChampSim Multicore Out-of-Order Simulator ***

Warmup Instructions: 10000000
Simulation Instructions: 100000000
Number of CPUs: 1
Off-chip DRAM Size: 4 GiB Channels: 1 Width: 64-bit Data Rate: 3200 MT/s

VirtualMemory physical capacity: 8588881920 num_ppages: 2096895
VirtualMemory page size: 4096 log2_page_size: 12

CPU 0 runs /datasets/cs240c-wi22-a00-public/data/Assignment2/bzip2_259B.trace.xz
CPU 0 Bimodal branch predictor
Basic BTB sets: 1024 ways: 8 indirect buffer size: 4096 RAS size: 64
Initialize Hawkeye state
Heartbeat CPU 0 instructions: 10000002 cycles: 2535454 heartbeat IPC: 3.94407 cumulative IPC: 3.94407 (Simulation time: 0 hr 0 min 20 sec) 

Warmup complete CPU 0 instructions: 10000002 cycles: 2535454 (Simulation time: 0 hr 0 min 20 sec) 

hawkeye_final_SAMPLER_WAYS_32: replacement/UUT/UUT.cc:189: void CACHE::repl_rreplacementDUUT_update(uint32_t, uint32_t, uint32_t, uint64_t, uint64_t, uint64_t, uint32_t, uint8_t): Assertion `sampler_set < SAMPLER_SETS' failed.
./my_run.sh: line 180:   560 Aborted                 (core dumped) ( "$@" )
