
*** ChampSim Multicore Out-of-Order Simulator ***

Warmup Instructions: 10000000
Simulation Instructions: 100000000
Number of CPUs: 1
Off-chip DRAM Size: 4 GiB Channels: 1 Width: 64-bit Data Rate: 3200 MT/s

VirtualMemory physical capacity: 8588881920 num_ppages: 2096895
VirtualMemory page size: 4096 log2_page_size: 12

CPU 0 runs /datasets/cs240c-wi22-a00-public/data/Assignment2/milc_360B.trace.xz
CPU 0 Bimodal branch predictor
Basic BTB sets: 1024 ways: 8 indirect buffer size: 4096 RAS size: 64
Initialize Hawkeye state
Heartbeat CPU 0 instructions: 10000001 cycles: 2500103 heartbeat IPC: 3.99984 cumulative IPC: 3.99984 (Simulation time: 0 hr 0 min 30 sec) 

Warmup complete CPU 0 instructions: 10000001 cycles: 2500103 (Simulation time: 0 hr 0 min 30 sec) 

Heartbeat CPU 0 instructions: 20000000 cycles: 20085571 heartbeat IPC: 0.568651 cumulative IPC: 0.568651 (Simulation time: 0 hr 2 min 14 sec) 
Heartbeat CPU 0 instructions: 30000004 cycles: 37614620 heartbeat IPC: 0.570482 cumulative IPC: 0.569565 (Simulation time: 0 hr 4 min 1 sec) 
Heartbeat CPU 0 instructions: 40000001 cycles: 55147506 heartbeat IPC: 0.570357 cumulative IPC: 0.569829 (Simulation time: 0 hr 5 min 47 sec) 
Heartbeat CPU 0 instructions: 50000001 cycles: 75818770 heartbeat IPC: 0.483763 cumulative IPC: 0.545564 (Simulation time: 0 hr 8 min 7 sec) 
Heartbeat CPU 0 instructions: 60000000 cycles: 95153274 heartbeat IPC: 0.51721 cumulative IPC: 0.539647 (Simulation time: 0 hr 10 min 1 sec) 
Heartbeat CPU 0 instructions: 70000000 cycles: 114835788 heartbeat IPC: 0.508065 cumulative IPC: 0.534113 (Simulation time: 0 hr 11 min 52 sec) 
Heartbeat CPU 0 instructions: 80000000 cycles: 131674052 heartbeat IPC: 0.593885 cumulative IPC: 0.541905 (Simulation time: 0 hr 13 min 39 sec) 
Heartbeat CPU 0 instructions: 90000000 cycles: 147681482 heartbeat IPC: 0.62471 cumulative IPC: 0.551035 (Simulation time: 0 hr 15 min 24 sec) 
Heartbeat CPU 0 instructions: 100000002 cycles: 163967584 heartbeat IPC: 0.614021 cumulative IPC: 0.557388 (Simulation time: 0 hr 17 min 8 sec) 
Heartbeat CPU 0 instructions: 110000000 cycles: 180277474 heartbeat IPC: 0.613125 cumulative IPC: 0.562501 (Simulation time: 0 hr 18 min 51 sec) 
Finished CPU 0 instructions: 100000004 cycles: 177777372 cumulative IPC: 0.562501 (Simulation time: 0 hr 18 min 51 sec) 

ChampSim completed all CPUs

Region of Interest Statistics

CPU 0 cumulative IPC: 0.562501 instructions: 100000004 cycles: 177777372
cpu0_DTLB TOTAL     ACCESS:   15538935  HIT:   15324192  MISS:     214743
cpu0_DTLB LOAD      ACCESS:    9103930  HIT:    8891401  MISS:     212529
cpu0_DTLB RFO       ACCESS:    6435005  HIT:    6432791  MISS:       2214
cpu0_DTLB PREFETCH  ACCESS:          0  HIT:          0  MISS:          0
cpu0_DTLB WRITEBACK ACCESS:          0  HIT:          0  MISS:          0
cpu0_DTLB TRANSLATION ACCESS:          0  HIT:          0  MISS:          0
cpu0_DTLB PREFETCH  REQUESTED:          0  ISSUED:          0  USEFUL:          0  USELESS:          0
cpu0_DTLB AVERAGE MISS LATENCY: 83.7481 cycles
cpu0_ITLB TOTAL     ACCESS:    2730847  HIT:    2730844  MISS:          3
cpu0_ITLB LOAD      ACCESS:    2730847  HIT:    2730844  MISS:          3
cpu0_ITLB RFO       ACCESS:          0  HIT:          0  MISS:          0
cpu0_ITLB PREFETCH  ACCESS:          0  HIT:          0  MISS:          0
cpu0_ITLB WRITEBACK ACCESS:          0  HIT:          0  MISS:          0
cpu0_ITLB TRANSLATION ACCESS:          0  HIT:          0  MISS:          0
cpu0_ITLB PREFETCH  REQUESTED:          0  ISSUED:          0  USEFUL:          0  USELESS:          0
cpu0_ITLB AVERAGE MISS LATENCY: 520.333 cycles
cpu0_L1I TOTAL     ACCESS:    6933863  HIT:    6933835  MISS:         28
cpu0_L1I LOAD      ACCESS:    6933863  HIT:    6933835  MISS:         28
cpu0_L1I RFO       ACCESS:          0  HIT:          0  MISS:          0
cpu0_L1I PREFETCH  ACCESS:          0  HIT:          0  MISS:          0
cpu0_L1I WRITEBACK ACCESS:          0  HIT:          0  MISS:          0
cpu0_L1I TRANSLATION ACCESS:          0  HIT:          0  MISS:          0
cpu0_L1I PREFETCH  REQUESTED:          0  ISSUED:          0  USEFUL:          0  USELESS:          0
cpu0_L1I AVERAGE MISS LATENCY: 237.321 cycles
cpu0_STLB TOTAL     ACCESS:     214746  HIT:        123  MISS:     214623
cpu0_STLB LOAD      ACCESS:     212532  HIT:         98  MISS:     212434
cpu0_STLB RFO       ACCESS:       2214  HIT:         25  MISS:       2189
cpu0_STLB PREFETCH  ACCESS:          0  HIT:          0  MISS:          0
cpu0_STLB WRITEBACK ACCESS:          0  HIT:          0  MISS:          0
cpu0_STLB TRANSLATION ACCESS:          0  HIT:          0  MISS:          0
cpu0_STLB PREFETCH  REQUESTED:          0  ISSUED:          0  USEFUL:          0  USELESS:          0
cpu0_STLB AVERAGE MISS LATENCY: 74.7957 cycles
cpu0_L1D TOTAL     ACCESS:   24607819  HIT:   22511428  MISS:    2096391
cpu0_L1D LOAD      ACCESS:    6430759  HIT:    4474761  MISS:    1955998
cpu0_L1D RFO       ACCESS:   17962880  HIT:   17822871  MISS:     140009
cpu0_L1D PREFETCH  ACCESS:          0  HIT:          0  MISS:          0
cpu0_L1D WRITEBACK ACCESS:          0  HIT:          0  MISS:          0
cpu0_L1D TRANSLATION ACCESS:     214180  HIT:     213796  MISS:        384
cpu0_L1D PREFETCH  REQUESTED:          0  ISSUED:          0  USEFUL:          0  USELESS:          0
cpu0_L1D AVERAGE MISS LATENCY: 338.335 cycles
cpu0_L2C TOTAL     ACCESS:    2839086  HIT:     742662  MISS:    2096424
cpu0_L2C LOAD      ACCESS:    1956026  HIT:          0  MISS:    1956026
cpu0_L2C RFO       ACCESS:     140009  HIT:          0  MISS:     140009
cpu0_L2C PREFETCH  ACCESS:          0  HIT:          0  MISS:          0
cpu0_L2C WRITEBACK ACCESS:     742667  HIT:     742660  MISS:          7
cpu0_L2C TRANSLATION ACCESS:        384  HIT:          2  MISS:        382
cpu0_L2C PREFETCH  REQUESTED:          0  ISSUED:          0  USEFUL:          0  USELESS:          0
cpu0_L2C AVERAGE MISS LATENCY: 327.232 cycles
LLC TOTAL     ACCESS:    2839080  HIT:      89542  MISS:    2749538
LLC LOAD      ACCESS:    1956026  HIT:      20739  MISS:    1935287
LLC RFO       ACCESS:     140009  HIT:          2  MISS:     140007
LLC PREFETCH  ACCESS:          0  HIT:          0  MISS:          0
LLC WRITEBACK ACCESS:     742663  HIT:      68766  MISS:     673897
LLC TRANSLATION ACCESS:        382  HIT:         35  MISS:        347
LLC PREFETCH  REQUESTED:          0  ISSUED:          0  USEFUL:          0  USELESS:          0
LLC AVERAGE MISS LATENCY: 233.491 cycles
OPTgen accesses: 35229
OPTgen hits: 577
OPTgen hit rate: 1.63786



DRAM Statistics
 CHANNEL 0
 RQ ROW_BUFFER_HIT:     363307  ROW_BUFFER_MISS:    1712326
 DBUS AVG_CONGESTED_CYCLE:    3.94367
 WQ ROW_BUFFER_HIT:      38168  ROW_BUFFER_MISS:     687043  FULL:          0


CPU 0 Branch Prediction Accuracy: 99.9991% MPKI: 0.00037 Average ROB Occupancy at Mispredict: 88.1622
Branch type MPKI
BRANCH_DIRECT_JUMP: 4e-05
BRANCH_INDIRECT: 0
BRANCH_CONDITIONAL: 0.00015
BRANCH_DIRECT_CALL: 9e-05
BRANCH_INDIRECT_CALL: 0
BRANCH_RETURN: 9e-05

