
*** ChampSim Multicore Out-of-Order Simulator ***

Warmup Instructions: 10000000
Simulation Instructions: 100000000
Number of CPUs: 1
Off-chip DRAM Size: 4 GiB Channels: 1 Width: 64-bit Data Rate: 3200 MT/s

VirtualMemory physical capacity: 8588881920 num_ppages: 2096895
VirtualMemory page size: 4096 log2_page_size: 12

CPU 0 runs /datasets/cs240c-wi22-a00-public/data/Assignment2/GemsFDTD_109B.trace.xz
CPU 0 Bimodal branch predictor
Basic BTB sets: 1024 ways: 8 indirect buffer size: 4096 RAS size: 64
Initialize Hawkeye state
Heartbeat CPU 0 instructions: 10000004 cycles: 4294006 heartbeat IPC: 2.32883 cumulative IPC: 2.32883 (Simulation time: 0 hr 1 min 9 sec) 

Warmup complete CPU 0 instructions: 10000004 cycles: 4294006 (Simulation time: 0 hr 1 min 9 sec) 

Heartbeat CPU 0 instructions: 20000000 cycles: 35031605 heartbeat IPC: 0.325334 cumulative IPC: 0.325334 (Simulation time: 0 hr 5 min 1 sec) 
Heartbeat CPU 0 instructions: 30000004 cycles: 56211208 heartbeat IPC: 0.472153 cumulative IPC: 0.385229 (Simulation time: 0 hr 7 min 21 sec) 
Heartbeat CPU 0 instructions: 40000004 cycles: 62405423 heartbeat IPC: 1.61441 cumulative IPC: 0.51625 (Simulation time: 0 hr 8 min 17 sec) 
Heartbeat CPU 0 instructions: 50000002 cycles: 83290700 heartbeat IPC: 0.478806 cumulative IPC: 0.50635 (Simulation time: 0 hr 10 min 36 sec) 
Heartbeat CPU 0 instructions: 60000002 cycles: 123573365 heartbeat IPC: 0.248246 cumulative IPC: 0.419184 (Simulation time: 0 hr 15 min 7 sec) 
Heartbeat CPU 0 instructions: 70000001 cycles: 163363061 heartbeat IPC: 0.251321 cumulative IPC: 0.377195 (Simulation time: 0 hr 19 min 38 sec) 
Heartbeat CPU 0 instructions: 80000004 cycles: 203085194 heartbeat IPC: 0.251749 cumulative IPC: 0.352128 (Simulation time: 0 hr 24 min 14 sec) 
Heartbeat CPU 0 instructions: 90000000 cycles: 242739932 heartbeat IPC: 0.252177 cumulative IPC: 0.335506 (Simulation time: 0 hr 28 min 44 sec) 
Heartbeat CPU 0 instructions: 100000003 cycles: 282460582 heartbeat IPC: 0.251758 cumulative IPC: 0.323547 (Simulation time: 0 hr 33 min 12 sec) 
Heartbeat CPU 0 instructions: 110000004 cycles: 322177369 heartbeat IPC: 0.251783 cumulative IPC: 0.314581 (Simulation time: 0 hr 37 min 41 sec) 
Finished CPU 0 instructions: 100000000 cycles: 317883363 cumulative IPC: 0.314581 (Simulation time: 0 hr 37 min 41 sec) 

ChampSim completed all CPUs

Region of Interest Statistics

CPU 0 cumulative IPC: 0.314581 instructions: 100000000 cycles: 317883363
cpu0_DTLB TOTAL     ACCESS:   26448135  HIT:   26248708  MISS:     199427
cpu0_DTLB LOAD      ACCESS:   21017941  HIT:   20820518  MISS:     197423
cpu0_DTLB RFO       ACCESS:    5430194  HIT:    5428190  MISS:       2004
cpu0_DTLB PREFETCH  ACCESS:          0  HIT:          0  MISS:          0
cpu0_DTLB WRITEBACK ACCESS:          0  HIT:          0  MISS:          0
cpu0_DTLB TRANSLATION ACCESS:          0  HIT:          0  MISS:          0
cpu0_DTLB PREFETCH  REQUESTED:          0  ISSUED:          0  USEFUL:          0  USELESS:          0
cpu0_DTLB AVERAGE MISS LATENCY: 425.255 cycles
cpu0_ITLB TOTAL     ACCESS:    2055311  HIT:    2055293  MISS:         18
cpu0_ITLB LOAD      ACCESS:    2055311  HIT:    2055293  MISS:         18
cpu0_ITLB RFO       ACCESS:          0  HIT:          0  MISS:          0
cpu0_ITLB PREFETCH  ACCESS:          0  HIT:          0  MISS:          0
cpu0_ITLB WRITEBACK ACCESS:          0  HIT:          0  MISS:          0
cpu0_ITLB TRANSLATION ACCESS:          0  HIT:          0  MISS:          0
cpu0_ITLB PREFETCH  REQUESTED:          0  ISSUED:          0  USEFUL:          0  USELESS:          0
cpu0_ITLB AVERAGE MISS LATENCY: 249.278 cycles
cpu0_L1I TOTAL     ACCESS:    1722922  HIT:    1722492  MISS:        430
cpu0_L1I LOAD      ACCESS:    1722922  HIT:    1722492  MISS:        430
cpu0_L1I RFO       ACCESS:          0  HIT:          0  MISS:          0
cpu0_L1I PREFETCH  ACCESS:          0  HIT:          0  MISS:          0
cpu0_L1I WRITEBACK ACCESS:          0  HIT:          0  MISS:          0
cpu0_L1I TRANSLATION ACCESS:          0  HIT:          0  MISS:          0
cpu0_L1I PREFETCH  REQUESTED:          0  ISSUED:          0  USEFUL:          0  USELESS:          0
cpu0_L1I AVERAGE MISS LATENCY: 361.137 cycles
cpu0_STLB TOTAL     ACCESS:     199445  HIT:      33984  MISS:     165461
cpu0_STLB LOAD      ACCESS:     197441  HIT:      32674  MISS:     164767
cpu0_STLB RFO       ACCESS:       2004  HIT:       1310  MISS:        694
cpu0_STLB PREFETCH  ACCESS:          0  HIT:          0  MISS:          0
cpu0_STLB WRITEBACK ACCESS:          0  HIT:          0  MISS:          0
cpu0_STLB TRANSLATION ACCESS:          0  HIT:          0  MISS:          0
cpu0_STLB PREFETCH  REQUESTED:          0  ISSUED:          0  USEFUL:          0  USELESS:          0
cpu0_STLB AVERAGE MISS LATENCY: 501.612 cycles
cpu0_L1D TOTAL     ACCESS:   22883240  HIT:   19653160  MISS:    3230080
cpu0_L1D LOAD      ACCESS:   13783471  HIT:   10683687  MISS:    3099784
cpu0_L1D RFO       ACCESS:    9009330  HIT:    8881718  MISS:     127612
cpu0_L1D PREFETCH  ACCESS:          0  HIT:          0  MISS:          0
cpu0_L1D WRITEBACK ACCESS:          0  HIT:          0  MISS:          0
cpu0_L1D TRANSLATION ACCESS:      90439  HIT:      87755  MISS:       2684
cpu0_L1D PREFETCH  REQUESTED:          0  ISSUED:          0  USEFUL:          0  USELESS:          0
cpu0_L1D AVERAGE MISS LATENCY: 718.137 cycles
cpu0_L2C TOTAL     ACCESS:    4595343  HIT:    1423558  MISS:    3171785
cpu0_L2C LOAD      ACCESS:    3100214  HIT:      41174  MISS:    3059040
cpu0_L2C RFO       ACCESS:     127612  HIT:      15159  MISS:     112453
cpu0_L2C PREFETCH  ACCESS:          0  HIT:          0  MISS:          0
cpu0_L2C WRITEBACK ACCESS:    1364833  HIT:    1364735  MISS:         98
cpu0_L2C TRANSLATION ACCESS:       2684  HIT:       2490  MISS:        194
cpu0_L2C PREFETCH  REQUESTED:          0  ISSUED:          0  USEFUL:          0  USELESS:          0
cpu0_L2C AVERAGE MISS LATENCY: 720.166 cycles
LLC TOTAL     ACCESS:    4522946  HIT:    1087659  MISS:    3435287
LLC LOAD      ACCESS:    3059031  HIT:     708160  MISS:    2350871
LLC RFO       ACCESS:     112453  HIT:      96825  MISS:      15628
LLC PREFETCH  ACCESS:          0  HIT:          0  MISS:          0
LLC WRITEBACK ACCESS:    1351268  HIT:     282575  MISS:    1068693
LLC TRANSLATION ACCESS:        194  HIT:         99  MISS:         95
LLC PREFETCH  REQUESTED:          0  ISSUED:          0  USEFUL:          0  USELESS:          0
LLC AVERAGE MISS LATENCY: 645.531 cycles
OPTgen accesses: 53461
OPTgen hits: 12444
OPTgen hit rate: 23.2768



DRAM Statistics
 CHANNEL 0
 RQ ROW_BUFFER_HIT:      43466  ROW_BUFFER_MISS:    2323072
 DBUS AVG_CONGESTED_CYCLE:    3.99632
 WQ ROW_BUFFER_HIT:      20816  ROW_BUFFER_MISS:    1238398  FULL:      55267


CPU 0 Branch Prediction Accuracy: 98.929% MPKI: 0.55515 Average ROB Occupancy at Mispredict: 265.873
Branch type MPKI
BRANCH_DIRECT_JUMP: 0.00045
BRANCH_INDIRECT: 1e-05
BRANCH_CONDITIONAL: 0.5534
BRANCH_DIRECT_CALL: 0.00065
BRANCH_INDIRECT_CALL: 0
BRANCH_RETURN: 0.00064

