
*** ChampSim Multicore Out-of-Order Simulator ***

Warmup Instructions: 10000000
Simulation Instructions: 100000000
Number of CPUs: 1
Off-chip DRAM Size: 4 GiB Channels: 1 Width: 64-bit Data Rate: 3200 MT/s

VirtualMemory physical capacity: 8588881920 num_ppages: 2096895
VirtualMemory page size: 4096 log2_page_size: 12

CPU 0 runs /datasets/cs240c-wi22-a00-public/data/Assignment2/zeusmp_100B.trace.xz
CPU 0 Bimodal branch predictor
Basic BTB sets: 1024 ways: 8 indirect buffer size: 4096 RAS size: 64
Initialize Hawkeye state
Heartbeat CPU 0 instructions: 10000000 cycles: 2533557 heartbeat IPC: 3.94702 cumulative IPC: 3.94702 (Simulation time: 0 hr 0 min 26 sec) 

Warmup complete CPU 0 instructions: 10000004 cycles: 2533558 (Simulation time: 0 hr 0 min 26 sec) 

Heartbeat CPU 0 instructions: 20000003 cycles: 8009272 heartbeat IPC: 1.82625 cumulative IPC: 1.82625 (Simulation time: 0 hr 1 min 16 sec) 
Heartbeat CPU 0 instructions: 30000000 cycles: 13935973 heartbeat IPC: 1.68728 cumulative IPC: 1.75401 (Simulation time: 0 hr 2 min 10 sec) 
Heartbeat CPU 0 instructions: 40000004 cycles: 19853525 heartbeat IPC: 1.68989 cumulative IPC: 1.7321 (Simulation time: 0 hr 2 min 59 sec) 
Heartbeat CPU 0 instructions: 50000001 cycles: 25741216 heartbeat IPC: 1.69846 cumulative IPC: 1.72357 (Simulation time: 0 hr 3 min 51 sec) 
Heartbeat CPU 0 instructions: 60000004 cycles: 31661581 heartbeat IPC: 1.68909 cumulative IPC: 1.71656 (Simulation time: 0 hr 4 min 45 sec) 
Heartbeat CPU 0 instructions: 70000001 cycles: 37545588 heartbeat IPC: 1.69952 cumulative IPC: 1.7137 (Simulation time: 0 hr 5 min 39 sec) 
Heartbeat CPU 0 instructions: 80000001 cycles: 43471571 heartbeat IPC: 1.68748 cumulative IPC: 1.7099 (Simulation time: 0 hr 6 min 32 sec) 
Heartbeat CPU 0 instructions: 90000000 cycles: 49392313 heartbeat IPC: 1.68898 cumulative IPC: 1.70726 (Simulation time: 0 hr 7 min 23 sec) 
Heartbeat CPU 0 instructions: 100000000 cycles: 55278445 heartbeat IPC: 1.69891 cumulative IPC: 1.70633 (Simulation time: 0 hr 8 min 15 sec) 
Heartbeat CPU 0 instructions: 110000003 cycles: 61195580 heartbeat IPC: 1.69001 cumulative IPC: 1.70468 (Simulation time: 0 hr 9 min 7 sec) 
Finished CPU 0 instructions: 100000004 cycles: 58662023 cumulative IPC: 1.70468 (Simulation time: 0 hr 9 min 7 sec) 

ChampSim completed all CPUs

Region of Interest Statistics

CPU 0 cumulative IPC: 1.70468 instructions: 100000004 cycles: 58662023
cpu0_DTLB TOTAL     ACCESS:   16442628  HIT:   12278099  MISS:    4164529
cpu0_DTLB LOAD      ACCESS:   11964274  HIT:    9306959  MISS:    2657315
cpu0_DTLB RFO       ACCESS:    4478354  HIT:    2971140  MISS:    1507214
cpu0_DTLB PREFETCH  ACCESS:          0  HIT:          0  MISS:          0
cpu0_DTLB WRITEBACK ACCESS:          0  HIT:          0  MISS:          0
cpu0_DTLB TRANSLATION ACCESS:          0  HIT:          0  MISS:          0
cpu0_DTLB PREFETCH  REQUESTED:          0  ISSUED:          0  USEFUL:          0  USELESS:          0
cpu0_DTLB AVERAGE MISS LATENCY: 10.406 cycles
cpu0_ITLB TOTAL     ACCESS:    2227458  HIT:    2227457  MISS:          1
cpu0_ITLB LOAD      ACCESS:    2227458  HIT:    2227457  MISS:          1
cpu0_ITLB RFO       ACCESS:          0  HIT:          0  MISS:          0
cpu0_ITLB PREFETCH  ACCESS:          0  HIT:          0  MISS:          0
cpu0_ITLB WRITEBACK ACCESS:          0  HIT:          0  MISS:          0
cpu0_ITLB TRANSLATION ACCESS:          0  HIT:          0  MISS:          0
cpu0_ITLB PREFETCH  REQUESTED:          0  ISSUED:          0  USEFUL:          0  USELESS:          0
cpu0_ITLB AVERAGE MISS LATENCY: 505 cycles
cpu0_L1I TOTAL     ACCESS:    3117504  HIT:    3117453  MISS:         51
cpu0_L1I LOAD      ACCESS:    3117504  HIT:    3117453  MISS:         51
cpu0_L1I RFO       ACCESS:          0  HIT:          0  MISS:          0
cpu0_L1I PREFETCH  ACCESS:          0  HIT:          0  MISS:          0
cpu0_L1I WRITEBACK ACCESS:          0  HIT:          0  MISS:          0
cpu0_L1I TRANSLATION ACCESS:          0  HIT:          0  MISS:          0
cpu0_L1I PREFETCH  REQUESTED:          0  ISSUED:          0  USEFUL:          0  USELESS:          0
cpu0_L1I AVERAGE MISS LATENCY: 298.196 cycles
cpu0_STLB TOTAL     ACCESS:    4164530  HIT:    4156091  MISS:       8439
cpu0_STLB LOAD      ACCESS:    2657316  HIT:    2652153  MISS:       5163
cpu0_STLB RFO       ACCESS:    1507214  HIT:    1503938  MISS:       3276
cpu0_STLB PREFETCH  ACCESS:          0  HIT:          0  MISS:          0
cpu0_STLB WRITEBACK ACCESS:          0  HIT:          0  MISS:          0
cpu0_STLB TRANSLATION ACCESS:          0  HIT:          0  MISS:          0
cpu0_STLB PREFETCH  REQUESTED:          0  ISSUED:          0  USEFUL:          0  USELESS:          0
cpu0_STLB AVERAGE MISS LATENCY: 557.702 cycles
cpu0_L1D TOTAL     ACCESS:   19019401  HIT:   13985143  MISS:    5034258
cpu0_L1D LOAD      ACCESS:   12124157  HIT:    8889744  MISS:    3234413
cpu0_L1D RFO       ACCESS:    6886907  HIT:    5094758  MISS:    1792149
cpu0_L1D PREFETCH  ACCESS:          0  HIT:          0  MISS:          0
cpu0_L1D WRITEBACK ACCESS:          0  HIT:          0  MISS:          0
cpu0_L1D TRANSLATION ACCESS:       8337  HIT:        641  MISS:       7696
cpu0_L1D PREFETCH  REQUESTED:          0  ISSUED:          0  USEFUL:          0  USELESS:          0
cpu0_L1D AVERAGE MISS LATENCY: 86.4904 cycles
cpu0_L2C TOTAL     ACCESS:    6854957  HIT:    6267325  MISS:     587632
cpu0_L2C LOAD      ACCESS:    3234187  HIT:    2840104  MISS:     394083
cpu0_L2C RFO       ACCESS:    1790634  HIT:    1597372  MISS:     193262
cpu0_L2C PREFETCH  ACCESS:          0  HIT:          0  MISS:          0
cpu0_L2C WRITEBACK ACCESS:    1822440  HIT:    1822159  MISS:        281
cpu0_L2C TRANSLATION ACCESS:       7696  HIT:       7690  MISS:          6
cpu0_L2C PREFETCH  REQUESTED:          0  ISSUED:          0  USEFUL:          0  USELESS:          0
cpu0_L2C AVERAGE MISS LATENCY: 645.87 cycles
LLC TOTAL     ACCESS:     780686  HIT:     100815  MISS:     679871
LLC LOAD      ACCESS:     394083  HIT:      87529  MISS:     306554
LLC RFO       ACCESS:     193262  HIT:          0  MISS:     193262
LLC PREFETCH  ACCESS:          0  HIT:          0  MISS:          0
LLC WRITEBACK ACCESS:     193335  HIT:      13285  MISS:     180050
LLC TRANSLATION ACCESS:          6  HIT:          1  MISS:          5
LLC PREFETCH  REQUESTED:          0  ISSUED:          0  USEFUL:          0  USELESS:          0
LLC AVERAGE MISS LATENCY: 540.101 cycles
OPTgen accesses: 9783
OPTgen hits: 1576
OPTgen hit rate: 16.1096



DRAM Statistics
 CHANNEL 0
 RQ ROW_BUFFER_HIT:        143  ROW_BUFFER_MISS:     499678
 DBUS AVG_CONGESTED_CYCLE:    3.99927
 WQ ROW_BUFFER_HIT:        379  ROW_BUFFER_MISS:     198286  FULL:          0


CPU 0 Branch Prediction Accuracy: 99.0158% MPKI: 0.52371 Average ROB Occupancy at Mispredict: 235.825
Branch type MPKI
BRANCH_DIRECT_JUMP: 1e-05
BRANCH_INDIRECT: 0
BRANCH_CONDITIONAL: 0.5237
BRANCH_DIRECT_CALL: 0
BRANCH_INDIRECT_CALL: 0
BRANCH_RETURN: 0

