
*** ChampSim Multicore Out-of-Order Simulator ***

Warmup Instructions: 10000000
Simulation Instructions: 100000000
Number of CPUs: 1
Off-chip DRAM Size: 4 GiB Channels: 1 Width: 64-bit Data Rate: 3200 MT/s

VirtualMemory physical capacity: 8588881920 num_ppages: 2096895
VirtualMemory page size: 4096 log2_page_size: 12

CPU 0 runs /datasets/cs240c-wi22-a00-public/data/Assignment2/milc_409B.trace.xz
CPU 0 Bimodal branch predictor
Basic BTB sets: 1024 ways: 8 indirect buffer size: 4096 RAS size: 64
Initialize Hawkeye state
Heartbeat CPU 0 instructions: 10000000 cycles: 3019991 heartbeat IPC: 3.31127 cumulative IPC: 3.31127 (Simulation time: 0 hr 0 min 45 sec) 

Warmup complete CPU 0 instructions: 10000004 cycles: 3019992 (Simulation time: 0 hr 0 min 45 sec) 

Heartbeat CPU 0 instructions: 20000002 cycles: 19852344 heartbeat IPC: 0.594094 cumulative IPC: 0.594094 (Simulation time: 0 hr 2 min 37 sec) 
Heartbeat CPU 0 instructions: 30000001 cycles: 36497771 heartbeat IPC: 0.600766 cumulative IPC: 0.597411 (Simulation time: 0 hr 4 min 29 sec) 
Heartbeat CPU 0 instructions: 40000004 cycles: 53082438 heartbeat IPC: 0.602967 cumulative IPC: 0.599252 (Simulation time: 0 hr 6 min 23 sec) 
Heartbeat CPU 0 instructions: 50000000 cycles: 69684073 heartbeat IPC: 0.60235 cumulative IPC: 0.600023 (Simulation time: 0 hr 8 min 17 sec) 
Heartbeat CPU 0 instructions: 60000004 cycles: 91660929 heartbeat IPC: 0.455024 cumulative IPC: 0.564073 (Simulation time: 0 hr 10 min 56 sec) 
Heartbeat CPU 0 instructions: 70000003 cycles: 107613954 heartbeat IPC: 0.62684 cumulative IPC: 0.573647 (Simulation time: 0 hr 12 min 42 sec) 
Heartbeat CPU 0 instructions: 80000002 cycles: 123704028 heartbeat IPC: 0.621501 cumulative IPC: 0.580027 (Simulation time: 0 hr 14 min 27 sec) 
Heartbeat CPU 0 instructions: 90000001 cycles: 139690994 heartbeat IPC: 0.62551 cumulative IPC: 0.585347 (Simulation time: 0 hr 16 min 11 sec) 
Heartbeat CPU 0 instructions: 100000001 cycles: 155624814 heartbeat IPC: 0.627596 cumulative IPC: 0.589759 (Simulation time: 0 hr 17 min 58 sec) 
Heartbeat CPU 0 instructions: 110000003 cycles: 175483856 heartbeat IPC: 0.503549 cumulative IPC: 0.579832 (Simulation time: 0 hr 21 min 6 sec) 
Finished CPU 0 instructions: 100000004 cycles: 172463865 cumulative IPC: 0.579832 (Simulation time: 0 hr 21 min 6 sec) 

ChampSim completed all CPUs

Region of Interest Statistics

CPU 0 cumulative IPC: 0.579832 instructions: 100000004 cycles: 172463865
cpu0_DTLB TOTAL     ACCESS:   14828251  HIT:   14653085  MISS:     175166
cpu0_DTLB LOAD      ACCESS:    7378065  HIT:    7205040  MISS:     173025
cpu0_DTLB RFO       ACCESS:    7450186  HIT:    7448045  MISS:       2141
cpu0_DTLB PREFETCH  ACCESS:          0  HIT:          0  MISS:          0
cpu0_DTLB WRITEBACK ACCESS:          0  HIT:          0  MISS:          0
cpu0_DTLB TRANSLATION ACCESS:          0  HIT:          0  MISS:          0
cpu0_DTLB PREFETCH  REQUESTED:          0  ISSUED:          0  USEFUL:          0  USELESS:          0
cpu0_DTLB AVERAGE MISS LATENCY: 105.462 cycles
cpu0_ITLB TOTAL     ACCESS:    2819504  HIT:    2819500  MISS:          4
cpu0_ITLB LOAD      ACCESS:    2819504  HIT:    2819500  MISS:          4
cpu0_ITLB RFO       ACCESS:          0  HIT:          0  MISS:          0
cpu0_ITLB PREFETCH  ACCESS:          0  HIT:          0  MISS:          0
cpu0_ITLB WRITEBACK ACCESS:          0  HIT:          0  MISS:          0
cpu0_ITLB TRANSLATION ACCESS:          0  HIT:          0  MISS:          0
cpu0_ITLB PREFETCH  REQUESTED:          0  ISSUED:          0  USEFUL:          0  USELESS:          0
cpu0_ITLB AVERAGE MISS LATENCY: 267.5 cycles
cpu0_L1I TOTAL     ACCESS:    7053543  HIT:    7053492  MISS:         51
cpu0_L1I LOAD      ACCESS:    7053543  HIT:    7053492  MISS:         51
cpu0_L1I RFO       ACCESS:          0  HIT:          0  MISS:          0
cpu0_L1I PREFETCH  ACCESS:          0  HIT:          0  MISS:          0
cpu0_L1I WRITEBACK ACCESS:          0  HIT:          0  MISS:          0
cpu0_L1I TRANSLATION ACCESS:          0  HIT:          0  MISS:          0
cpu0_L1I PREFETCH  REQUESTED:          0  ISSUED:          0  USEFUL:          0  USELESS:          0
cpu0_L1I AVERAGE MISS LATENCY: 187.451 cycles
cpu0_STLB TOTAL     ACCESS:     175170  HIT:          0  MISS:     175170
cpu0_STLB LOAD      ACCESS:     173029  HIT:          0  MISS:     173029
cpu0_STLB RFO       ACCESS:       2141  HIT:          0  MISS:       2141
cpu0_STLB PREFETCH  ACCESS:          0  HIT:          0  MISS:          0
cpu0_STLB WRITEBACK ACCESS:          0  HIT:          0  MISS:          0
cpu0_STLB TRANSLATION ACCESS:          0  HIT:          0  MISS:          0
cpu0_STLB PREFETCH  REQUESTED:          0  ISSUED:          0  USEFUL:          0  USELESS:          0
cpu0_STLB AVERAGE MISS LATENCY: 96.466 cycles
cpu0_L1D TOTAL     ACCESS:   28498507  HIT:   26681019  MISS:    1817488
cpu0_L1D LOAD      ACCESS:    6442100  HIT:    4761510  MISS:    1680590
cpu0_L1D RFO       ACCESS:   21881240  HIT:   21744393  MISS:     136847
cpu0_L1D PREFETCH  ACCESS:          0  HIT:          0  MISS:          0
cpu0_L1D WRITEBACK ACCESS:          0  HIT:          0  MISS:          0
cpu0_L1D TRANSLATION ACCESS:     175167  HIT:     175116  MISS:         51
cpu0_L1D PREFETCH  REQUESTED:          0  ISSUED:          0  USEFUL:          0  USELESS:          0
cpu0_L1D AVERAGE MISS LATENCY: 383.253 cycles
cpu0_L2C TOTAL     ACCESS:    2676936  HIT:     859383  MISS:    1817553
cpu0_L2C LOAD      ACCESS:    1680641  HIT:          0  MISS:    1680641
cpu0_L2C RFO       ACCESS:     136847  HIT:          0  MISS:     136847
cpu0_L2C PREFETCH  ACCESS:          0  HIT:          0  MISS:          0
cpu0_L2C WRITEBACK ACCESS:     859397  HIT:     859383  MISS:         14
cpu0_L2C TRANSLATION ACCESS:         51  HIT:          0  MISS:         51
cpu0_L2C PREFETCH  REQUESTED:          0  ISSUED:          0  USEFUL:          0  USELESS:          0
cpu0_L2C AVERAGE MISS LATENCY: 372.197 cycles
LLC TOTAL     ACCESS:    2673600  HIT:      84230  MISS:    2589370
LLC LOAD      ACCESS:    1680641  HIT:      10723  MISS:    1669918
LLC RFO       ACCESS:     136847  HIT:      14115  MISS:     122732
LLC PREFETCH  ACCESS:          0  HIT:          0  MISS:          0
LLC WRITEBACK ACCESS:     856061  HIT:      59390  MISS:     796671
LLC TRANSLATION ACCESS:         51  HIT:          2  MISS:         49
LLC PREFETCH  REQUESTED:          0  ISSUED:          0  USEFUL:          0  USELESS:          0
LLC AVERAGE MISS LATENCY: 246.515 cycles
OPTgen accesses: 34616
OPTgen hits: 1028
OPTgen hit rate: 2.96972



DRAM Statistics
 CHANNEL 0
 RQ ROW_BUFFER_HIT:     246271  ROW_BUFFER_MISS:    1546422
 DBUS AVG_CONGESTED_CYCLE:    3.97106
 WQ ROW_BUFFER_HIT:      47238  ROW_BUFFER_MISS:     788569  FULL:          0


CPU 0 Branch Prediction Accuracy: 99.9987% MPKI: 0.00058 Average ROB Occupancy at Mispredict: 56.7586
Branch type MPKI
BRANCH_DIRECT_JUMP: 0.0001
BRANCH_INDIRECT: 0
BRANCH_CONDITIONAL: 0.00033
BRANCH_DIRECT_CALL: 8e-05
BRANCH_INDIRECT_CALL: 0
BRANCH_RETURN: 7e-05

