
*** ChampSim Multicore Out-of-Order Simulator ***

Warmup Instructions: 10000000
Simulation Instructions: 100000000
Number of CPUs: 1
Off-chip DRAM Size: 4 GiB Channels: 1 Width: 64-bit Data Rate: 3200 MT/s

VirtualMemory physical capacity: 8588881920 num_ppages: 2096895
VirtualMemory page size: 4096 log2_page_size: 12

CPU 0 runs /datasets/cs240c-wi22-a00-public/data/Assignment2/wrf_1228B.trace.xz
CPU 0 Bimodal branch predictor
Basic BTB sets: 1024 ways: 8 indirect buffer size: 4096 RAS size: 64
Initialize Hawkeye state
Heartbeat CPU 0 instructions: 10000001 cycles: 3904458 heartbeat IPC: 2.56118 cumulative IPC: 2.56118 (Simulation time: 0 hr 0 min 56 sec) 

Warmup complete CPU 0 instructions: 10000001 cycles: 3904458 (Simulation time: 0 hr 0 min 56 sec) 

Heartbeat CPU 0 instructions: 20000001 cycles: 12255151 heartbeat IPC: 1.19751 cumulative IPC: 1.19751 (Simulation time: 0 hr 2 min 10 sec) 
Heartbeat CPU 0 instructions: 30000001 cycles: 24604388 heartbeat IPC: 0.809767 cumulative IPC: 0.966187 (Simulation time: 0 hr 3 min 44 sec) 
Heartbeat CPU 0 instructions: 40000000 cycles: 37775213 heartbeat IPC: 0.759254 cumulative IPC: 0.88572 (Simulation time: 0 hr 5 min 24 sec) 
Heartbeat CPU 0 instructions: 50000001 cycles: 46795444 heartbeat IPC: 1.10862 cumulative IPC: 0.932597 (Simulation time: 0 hr 6 min 35 sec) 
Heartbeat CPU 0 instructions: 60000002 cycles: 57052860 heartbeat IPC: 0.974904 cumulative IPC: 0.940762 (Simulation time: 0 hr 7 min 56 sec) 
Heartbeat CPU 0 instructions: 70000001 cycles: 68361505 heartbeat IPC: 0.884279 cumulative IPC: 0.930852 (Simulation time: 0 hr 9 min 9 sec) 
Heartbeat CPU 0 instructions: 80000004 cycles: 78071503 heartbeat IPC: 1.02987 cumulative IPC: 0.943815 (Simulation time: 0 hr 10 min 7 sec) 
Heartbeat CPU 0 instructions: 90000001 cycles: 87756498 heartbeat IPC: 1.03252 cumulative IPC: 0.954061 (Simulation time: 0 hr 11 min 6 sec) 
Heartbeat CPU 0 instructions: 100000002 cycles: 97434838 heartbeat IPC: 1.03324 cumulative IPC: 0.962254 (Simulation time: 0 hr 12 min 7 sec) 
Heartbeat CPU 0 instructions: 110000000 cycles: 107104976 heartbeat IPC: 1.03411 cumulative IPC: 0.968987 (Simulation time: 0 hr 13 min 5 sec) 
Finished CPU 0 instructions: 100000004 cycles: 103200519 cumulative IPC: 0.968987 (Simulation time: 0 hr 13 min 5 sec) 

ChampSim completed all CPUs

Region of Interest Statistics

CPU 0 cumulative IPC: 0.968987 instructions: 100000004 cycles: 103200519
cpu0_DTLB TOTAL     ACCESS:   19662547  HIT:   19566310  MISS:      96237
cpu0_DTLB LOAD      ACCESS:   17652325  HIT:   17570395  MISS:      81930
cpu0_DTLB RFO       ACCESS:    2010222  HIT:    1995915  MISS:      14307
cpu0_DTLB PREFETCH  ACCESS:          0  HIT:          0  MISS:          0
cpu0_DTLB WRITEBACK ACCESS:          0  HIT:          0  MISS:          0
cpu0_DTLB TRANSLATION ACCESS:          0  HIT:          0  MISS:          0
cpu0_DTLB PREFETCH  REQUESTED:          0  ISSUED:          0  USEFUL:          0  USELESS:          0
cpu0_DTLB AVERAGE MISS LATENCY: 20.0481 cycles
cpu0_ITLB TOTAL     ACCESS:    4201229  HIT:    4201217  MISS:         12
cpu0_ITLB LOAD      ACCESS:    4201229  HIT:    4201217  MISS:         12
cpu0_ITLB RFO       ACCESS:          0  HIT:          0  MISS:          0
cpu0_ITLB PREFETCH  ACCESS:          0  HIT:          0  MISS:          0
cpu0_ITLB WRITEBACK ACCESS:          0  HIT:          0  MISS:          0
cpu0_ITLB TRANSLATION ACCESS:          0  HIT:          0  MISS:          0
cpu0_ITLB PREFETCH  REQUESTED:          0  ISSUED:          0  USEFUL:          0  USELESS:          0
cpu0_ITLB AVERAGE MISS LATENCY: 227.75 cycles
cpu0_L1I TOTAL     ACCESS:    6671734  HIT:    6670986  MISS:        748
cpu0_L1I LOAD      ACCESS:    6671734  HIT:    6670986  MISS:        748
cpu0_L1I RFO       ACCESS:          0  HIT:          0  MISS:          0
cpu0_L1I PREFETCH  ACCESS:          0  HIT:          0  MISS:          0
cpu0_L1I WRITEBACK ACCESS:          0  HIT:          0  MISS:          0
cpu0_L1I TRANSLATION ACCESS:          0  HIT:          0  MISS:          0
cpu0_L1I PREFETCH  REQUESTED:          0  ISSUED:          0  USEFUL:          0  USELESS:          0
cpu0_L1I AVERAGE MISS LATENCY: 344.072 cycles
cpu0_STLB TOTAL     ACCESS:      96249  HIT:      86695  MISS:       9554
cpu0_STLB LOAD      ACCESS:      81942  HIT:      75034  MISS:       6908
cpu0_STLB RFO       ACCESS:      14307  HIT:      11661  MISS:       2646
cpu0_STLB PREFETCH  ACCESS:          0  HIT:          0  MISS:          0
cpu0_STLB WRITEBACK ACCESS:          0  HIT:          0  MISS:          0
cpu0_STLB TRANSLATION ACCESS:          0  HIT:          0  MISS:          0
cpu0_STLB PREFETCH  REQUESTED:          0  ISSUED:          0  USEFUL:          0  USELESS:          0
cpu0_STLB AVERAGE MISS LATENCY: 111.542 cycles
cpu0_L1D TOTAL     ACCESS:   18880163  HIT:   17521753  MISS:    1358410
cpu0_L1D LOAD      ACCESS:   14826101  HIT:   13727047  MISS:    1099054
cpu0_L1D RFO       ACCESS:    4044517  HIT:    3785947  MISS:     258570
cpu0_L1D PREFETCH  ACCESS:          0  HIT:          0  MISS:          0
cpu0_L1D WRITEBACK ACCESS:          0  HIT:          0  MISS:          0
cpu0_L1D TRANSLATION ACCESS:       9545  HIT:       8759  MISS:        786
cpu0_L1D PREFETCH  REQUESTED:          0  ISSUED:          0  USEFUL:          0  USELESS:          0
cpu0_L1D AVERAGE MISS LATENCY: 214.361 cycles
cpu0_L2C TOTAL     ACCESS:    1836362  HIT:     802928  MISS:    1033434
cpu0_L2C LOAD      ACCESS:    1099779  HIT:     287157  MISS:     812622
cpu0_L2C RFO       ACCESS:     258567  HIT:      39549  MISS:     219018
cpu0_L2C PREFETCH  ACCESS:          0  HIT:          0  MISS:          0
cpu0_L2C WRITEBACK ACCESS:     477230  HIT:     475549  MISS:       1681
cpu0_L2C TRANSLATION ACCESS:        786  HIT:        673  MISS:        113
cpu0_L2C PREFETCH  REQUESTED:          0  ISSUED:          0  USEFUL:          0  USELESS:          0
cpu0_L2C AVERAGE MISS LATENCY: 267.529 cycles
LLC TOTAL     ACCESS:    1463802  HIT:     391733  MISS:    1072069
LLC LOAD      ACCESS:     812622  HIT:     147648  MISS:     664974
LLC RFO       ACCESS:     219018  HIT:      45861  MISS:     173157
LLC PREFETCH  ACCESS:          0  HIT:          0  MISS:          0
LLC WRITEBACK ACCESS:     432049  HIT:     198185  MISS:     233864
LLC TRANSLATION ACCESS:        113  HIT:         39  MISS:         74
LLC PREFETCH  REQUESTED:          0  ISSUED:          0  USEFUL:          0  USELESS:          0
LLC AVERAGE MISS LATENCY: 237.676 cycles
OPTgen accesses: 20219
OPTgen hits: 5944
OPTgen hit rate: 29.3981



DRAM Statistics
 CHANNEL 0
 RQ ROW_BUFFER_HIT:      90185  ROW_BUFFER_MISS:     747757
 DBUS AVG_CONGESTED_CYCLE:    3.92838
 WQ ROW_BUFFER_HIT:      31260  ROW_BUFFER_MISS:     287511  FULL:        602


CPU 0 Branch Prediction Accuracy: 97.4481% MPKI: 2.04611 Average ROB Occupancy at Mispredict: 260.873
Branch type MPKI
BRANCH_DIRECT_JUMP: 0.00028
BRANCH_INDIRECT: 0
BRANCH_CONDITIONAL: 2.0456
BRANCH_DIRECT_CALL: 0.00011
BRANCH_INDIRECT_CALL: 0
BRANCH_RETURN: 0.00012

