
*** ChampSim Multicore Out-of-Order Simulator ***

Warmup Instructions: 10000000
Simulation Instructions: 100000000
Number of CPUs: 1
Off-chip DRAM Size: 4 GiB Channels: 1 Width: 64-bit Data Rate: 3200 MT/s

VirtualMemory physical capacity: 8588881920 num_ppages: 2096895
VirtualMemory page size: 4096 log2_page_size: 12

CPU 0 runs /datasets/cs240c-wi22-a00-public/data/Assignment2/soplex_66B.trace.xz
CPU 0 Bimodal branch predictor
Basic BTB sets: 1024 ways: 8 indirect buffer size: 4096 RAS size: 64
Initialize Hawkeye state
Heartbeat CPU 0 instructions: 10000001 cycles: 2688392 heartbeat IPC: 3.7197 cumulative IPC: 3.7197 (Simulation time: 0 hr 0 min 32 sec) 

Warmup complete CPU 0 instructions: 10000001 cycles: 2688392 (Simulation time: 0 hr 0 min 32 sec) 

Heartbeat CPU 0 instructions: 20000003 cycles: 27165134 heartbeat IPC: 0.408551 cumulative IPC: 0.408551 (Simulation time: 0 hr 1 min 53 sec) 
Heartbeat CPU 0 instructions: 30000001 cycles: 52800165 heartbeat IPC: 0.390091 cumulative IPC: 0.399108 (Simulation time: 0 hr 3 min 20 sec) 
Heartbeat CPU 0 instructions: 40000002 cycles: 78269562 heartbeat IPC: 0.392628 cumulative IPC: 0.396924 (Simulation time: 0 hr 4 min 43 sec) 
Heartbeat CPU 0 instructions: 50000002 cycles: 113248472 heartbeat IPC: 0.285887 cumulative IPC: 0.361794 (Simulation time: 0 hr 6 min 48 sec) 
Heartbeat CPU 0 instructions: 60000002 cycles: 146931857 heartbeat IPC: 0.296882 cumulative IPC: 0.346636 (Simulation time: 0 hr 8 min 27 sec) 
Heartbeat CPU 0 instructions: 70000001 cycles: 173895684 heartbeat IPC: 0.370867 cumulative IPC: 0.350452 (Simulation time: 0 hr 9 min 43 sec) 
Heartbeat CPU 0 instructions: 80000001 cycles: 201368843 heartbeat IPC: 0.363992 cumulative IPC: 0.352325 (Simulation time: 0 hr 11 min 6 sec) 
Heartbeat CPU 0 instructions: 90000003 cycles: 226344672 heartbeat IPC: 0.400387 cumulative IPC: 0.357692 (Simulation time: 0 hr 12 min 13 sec) 
Heartbeat CPU 0 instructions: 100000000 cycles: 252218271 heartbeat IPC: 0.386494 cumulative IPC: 0.360678 (Simulation time: 0 hr 13 min 24 sec) 
Heartbeat CPU 0 instructions: 110000001 cycles: 278028407 heartbeat IPC: 0.387445 cumulative IPC: 0.363187 (Simulation time: 0 hr 14 min 42 sec) 
Finished CPU 0 instructions: 100000000 cycles: 275340015 cumulative IPC: 0.363187 (Simulation time: 0 hr 14 min 42 sec) 

ChampSim completed all CPUs

Region of Interest Statistics

CPU 0 cumulative IPC: 0.363187 instructions: 100000000 cycles: 275340015
cpu0_DTLB TOTAL     ACCESS:   19888101  HIT:   19310688  MISS:     577413
cpu0_DTLB LOAD      ACCESS:   14825311  HIT:   14367972  MISS:     457339
cpu0_DTLB RFO       ACCESS:    5062790  HIT:    4942716  MISS:     120074
cpu0_DTLB PREFETCH  ACCESS:          0  HIT:          0  MISS:          0
cpu0_DTLB WRITEBACK ACCESS:          0  HIT:          0  MISS:          0
cpu0_DTLB TRANSLATION ACCESS:          0  HIT:          0  MISS:          0
cpu0_DTLB PREFETCH  REQUESTED:          0  ISSUED:          0  USEFUL:          0  USELESS:          0
cpu0_DTLB AVERAGE MISS LATENCY: 16.9431 cycles
cpu0_ITLB TOTAL     ACCESS:    8275122  HIT:    8275104  MISS:         18
cpu0_ITLB LOAD      ACCESS:    8275122  HIT:    8275104  MISS:         18
cpu0_ITLB RFO       ACCESS:          0  HIT:          0  MISS:          0
cpu0_ITLB PREFETCH  ACCESS:          0  HIT:          0  MISS:          0
cpu0_ITLB WRITEBACK ACCESS:          0  HIT:          0  MISS:          0
cpu0_ITLB TRANSLATION ACCESS:          0  HIT:          0  MISS:          0
cpu0_ITLB PREFETCH  REQUESTED:          0  ISSUED:          0  USEFUL:          0  USELESS:          0
cpu0_ITLB AVERAGE MISS LATENCY: 255.167 cycles
cpu0_L1I TOTAL     ACCESS:    1902089  HIT:    1901232  MISS:        857
cpu0_L1I LOAD      ACCESS:    1902089  HIT:    1901232  MISS:        857
cpu0_L1I RFO       ACCESS:          0  HIT:          0  MISS:          0
cpu0_L1I PREFETCH  ACCESS:          0  HIT:          0  MISS:          0
cpu0_L1I WRITEBACK ACCESS:          0  HIT:          0  MISS:          0
cpu0_L1I TRANSLATION ACCESS:          0  HIT:          0  MISS:          0
cpu0_L1I PREFETCH  REQUESTED:          0  ISSUED:          0  USEFUL:          0  USELESS:          0
cpu0_L1I AVERAGE MISS LATENCY: 262.257 cycles
cpu0_STLB TOTAL     ACCESS:     577431  HIT:     474510  MISS:     102921
cpu0_STLB LOAD      ACCESS:     457357  HIT:     362275  MISS:      95082
cpu0_STLB RFO       ACCESS:     120074  HIT:     112235  MISS:       7839
cpu0_STLB PREFETCH  ACCESS:          0  HIT:          0  MISS:          0
cpu0_STLB WRITEBACK ACCESS:          0  HIT:          0  MISS:          0
cpu0_STLB TRANSLATION ACCESS:          0  HIT:          0  MISS:          0
cpu0_STLB PREFETCH  REQUESTED:          0  ISSUED:          0  USEFUL:          0  USELESS:          0
cpu0_STLB AVERAGE MISS LATENCY: 44.0169 cycles
cpu0_L1D TOTAL     ACCESS:   17121439  HIT:   12804437  MISS:    4317002
cpu0_L1D LOAD      ACCESS:   11119774  HIT:    7521510  MISS:    3598264
cpu0_L1D RFO       ACCESS:    5901617  HIT:    5185521  MISS:     716096
cpu0_L1D PREFETCH  ACCESS:          0  HIT:          0  MISS:          0
cpu0_L1D WRITEBACK ACCESS:          0  HIT:          0  MISS:          0
cpu0_L1D TRANSLATION ACCESS:     100048  HIT:      97406  MISS:       2642
cpu0_L1D PREFETCH  REQUESTED:          0  ISSUED:          0  USEFUL:          0  USELESS:          0
cpu0_L1D AVERAGE MISS LATENCY: 224.796 cycles
cpu0_L2C TOTAL     ACCESS:    6105321  HIT:    2607882  MISS:    3497439
cpu0_L2C LOAD      ACCESS:    3598986  HIT:     717185  MISS:    2881801
cpu0_L2C RFO       ACCESS:     716030  HIT:     101657  MISS:     614373
cpu0_L2C PREFETCH  ACCESS:          0  HIT:          0  MISS:          0
cpu0_L2C WRITEBACK ACCESS:    1787663  HIT:    1787123  MISS:        540
cpu0_L2C TRANSLATION ACCESS:       2642  HIT:       1917  MISS:        725
cpu0_L2C PREFETCH  REQUESTED:          0  ISSUED:          0  USEFUL:          0  USELESS:          0
cpu0_L2C AVERAGE MISS LATENCY: 263.771 cycles
LLC TOTAL     ACCESS:    4877109  HIT:    2382241  MISS:    2494868
LLC LOAD      ACCESS:    2881785  HIT:    1189115  MISS:    1692670
LLC RFO       ACCESS:     614373  HIT:     234840  MISS:     379533
LLC PREFETCH  ACCESS:          0  HIT:          0  MISS:          0
LLC WRITEBACK ACCESS:    1380226  HIT:     957903  MISS:     422323
LLC TRANSLATION ACCESS:        725  HIT:        383  MISS:        342
LLC PREFETCH  REQUESTED:          0  ISSUED:          0  USEFUL:          0  USELESS:          0
LLC AVERAGE MISS LATENCY: 339.261 cycles
OPTgen accesses: 59990
OPTgen hits: 29718
OPTgen hit rate: 49.5383



DRAM Statistics
 CHANNEL 0
 RQ ROW_BUFFER_HIT:     301762  ROW_BUFFER_MISS:    1769318
 DBUS AVG_CONGESTED_CYCLE:    3.95439
 WQ ROW_BUFFER_HIT:      64260  ROW_BUFFER_MISS:     768811  FULL:     762644


CPU 0 Branch Prediction Accuracy: 91.9788% MPKI: 17.5693 Average ROB Occupancy at Mispredict: 27.6519
Branch type MPKI
BRANCH_DIRECT_JUMP: 0.00093
BRANCH_INDIRECT: 0.00028
BRANCH_CONDITIONAL: 17.5659
BRANCH_DIRECT_CALL: 0.00064
BRANCH_INDIRECT_CALL: 0.00043
BRANCH_RETURN: 0.00108

