
*** ChampSim Multicore Out-of-Order Simulator ***

Warmup Instructions: 10000000
Simulation Instructions: 100000000
Number of CPUs: 1
Off-chip DRAM Size: 4 GiB Channels: 1 Width: 64-bit Data Rate: 3200 MT/s

VirtualMemory physical capacity: 8588881920 num_ppages: 2096895
VirtualMemory page size: 4096 log2_page_size: 12

CPU 0 runs /datasets/cs240c-wi22-a00-public/data/Assignment2/mcf_158B.trace.xz
CPU 0 Bimodal branch predictor
Basic BTB sets: 1024 ways: 8 indirect buffer size: 4096 RAS size: 64
Initialize Hawkeye state
Heartbeat CPU 0 instructions: 10000002 cycles: 3864087 heartbeat IPC: 2.58793 cumulative IPC: 2.58793 (Simulation time: 0 hr 0 min 54 sec) 

Warmup complete CPU 0 instructions: 10000002 cycles: 3864087 (Simulation time: 0 hr 0 min 54 sec) 

Heartbeat CPU 0 instructions: 20000000 cycles: 139196567 heartbeat IPC: 0.0738921 cumulative IPC: 0.0738921 (Simulation time: 0 hr 4 min 34 sec) 
Heartbeat CPU 0 instructions: 30000000 cycles: 267282781 heartbeat IPC: 0.0780724 cumulative IPC: 0.0759247 (Simulation time: 0 hr 8 min 1 sec) 
Heartbeat CPU 0 instructions: 40000001 cycles: 396076502 heartbeat IPC: 0.0776435 cumulative IPC: 0.0764892 (Simulation time: 0 hr 11 min 28 sec) 
Heartbeat CPU 0 instructions: 50000000 cycles: 514538988 heartbeat IPC: 0.0844149 cumulative IPC: 0.0783277 (Simulation time: 0 hr 14 min 32 sec) 
Heartbeat CPU 0 instructions: 60000000 cycles: 629100358 heartbeat IPC: 0.0872895 cumulative IPC: 0.0799698 (Simulation time: 0 hr 17 min 35 sec) 
Heartbeat CPU 0 instructions: 70000002 cycles: 741427812 heartbeat IPC: 0.0890254 cumulative IPC: 0.0813489 (Simulation time: 0 hr 20 min 33 sec) 
Heartbeat CPU 0 instructions: 80000000 cycles: 856007176 heartbeat IPC: 0.0872757 cumulative IPC: 0.0821458 (Simulation time: 0 hr 23 min 26 sec) 
Heartbeat CPU 0 instructions: 90000003 cycles: 974347345 heartbeat IPC: 0.0845022 cumulative IPC: 0.0824332 (Simulation time: 0 hr 26 min 28 sec) 
Heartbeat CPU 0 instructions: 100000003 cycles: 1094477290 heartbeat IPC: 0.0832432 cumulative IPC: 0.0825224 (Simulation time: 0 hr 29 min 40 sec) 
Heartbeat CPU 0 instructions: 110000001 cycles: 1215233971 heartbeat IPC: 0.0828111 cumulative IPC: 0.0825512 (Simulation time: 0 hr 32 min 54 sec) 
Finished CPU 0 instructions: 100000002 cycles: 1211369885 cumulative IPC: 0.0825512 (Simulation time: 0 hr 32 min 54 sec) 

ChampSim completed all CPUs

Region of Interest Statistics

CPU 0 cumulative IPC: 0.0825512 instructions: 100000002 cycles: 1211369885
cpu0_DTLB TOTAL     ACCESS:   23555278  HIT:   12733412  MISS:   10821866
cpu0_DTLB LOAD      ACCESS:   20437510  HIT:    9982796  MISS:   10454714
cpu0_DTLB RFO       ACCESS:    3117768  HIT:    2750616  MISS:     367152
cpu0_DTLB PREFETCH  ACCESS:          0  HIT:          0  MISS:          0
cpu0_DTLB WRITEBACK ACCESS:          0  HIT:          0  MISS:          0
cpu0_DTLB TRANSLATION ACCESS:          0  HIT:          0  MISS:          0
cpu0_DTLB PREFETCH  REQUESTED:          0  ISSUED:          0  USEFUL:          0  USELESS:          0
cpu0_DTLB AVERAGE MISS LATENCY: 11.86 cycles
cpu0_ITLB TOTAL     ACCESS:   12956639  HIT:   12956639  MISS:          0
cpu0_ITLB LOAD      ACCESS:   12956639  HIT:   12956639  MISS:          0
cpu0_ITLB RFO       ACCESS:          0  HIT:          0  MISS:          0
cpu0_ITLB PREFETCH  ACCESS:          0  HIT:          0  MISS:          0
cpu0_ITLB WRITEBACK ACCESS:          0  HIT:          0  MISS:          0
cpu0_ITLB TRANSLATION ACCESS:          0  HIT:          0  MISS:          0
cpu0_ITLB PREFETCH  REQUESTED:          0  ISSUED:          0  USEFUL:          0  USELESS:          0
cpu0_ITLB AVERAGE MISS LATENCY: -nan cycles
cpu0_L1I TOTAL     ACCESS:         19  HIT:         14  MISS:          5
cpu0_L1I LOAD      ACCESS:         19  HIT:         14  MISS:          5
cpu0_L1I RFO       ACCESS:          0  HIT:          0  MISS:          0
cpu0_L1I PREFETCH  ACCESS:          0  HIT:          0  MISS:          0
cpu0_L1I WRITEBACK ACCESS:          0  HIT:          0  MISS:          0
cpu0_L1I TRANSLATION ACCESS:          0  HIT:          0  MISS:          0
cpu0_L1I PREFETCH  REQUESTED:          0  ISSUED:          0  USEFUL:          0  USELESS:          0
cpu0_L1I AVERAGE MISS LATENCY: 194.2 cycles
cpu0_STLB TOTAL     ACCESS:   10821866  HIT:    9710602  MISS:    1111264
cpu0_STLB LOAD      ACCESS:   10454714  HIT:    9350216  MISS:    1104498
cpu0_STLB RFO       ACCESS:     367152  HIT:     360386  MISS:       6766
cpu0_STLB PREFETCH  ACCESS:          0  HIT:          0  MISS:          0
cpu0_STLB WRITEBACK ACCESS:          0  HIT:          0  MISS:          0
cpu0_STLB TRANSLATION ACCESS:          0  HIT:          0  MISS:          0
cpu0_STLB PREFETCH  REQUESTED:          0  ISSUED:          0  USEFUL:          0  USELESS:          0
cpu0_STLB AVERAGE MISS LATENCY: 27.8138 cycles
cpu0_L1D TOTAL     ACCESS:   27621847  HIT:   14077935  MISS:   13543912
cpu0_L1D LOAD      ACCESS:   22275210  HIT:    9105332  MISS:   13169878
cpu0_L1D RFO       ACCESS:    4239302  HIT:    4034267  MISS:     205035
cpu0_L1D PREFETCH  ACCESS:          0  HIT:          0  MISS:          0
cpu0_L1D WRITEBACK ACCESS:          0  HIT:          0  MISS:          0
cpu0_L1D TRANSLATION ACCESS:    1107335  HIT:     938336  MISS:     168999
cpu0_L1D PREFETCH  REQUESTED:          0  ISSUED:          0  USEFUL:          0  USELESS:          0
cpu0_L1D AVERAGE MISS LATENCY: 161.018 cycles
cpu0_L2C TOTAL     ACCESS:   15651250  HIT:    6137994  MISS:    9513256
cpu0_L2C LOAD      ACCESS:   13169509  HIT:    3841512  MISS:    9327997
cpu0_L2C RFO       ACCESS:     205030  HIT:      71789  MISS:     133241
cpu0_L2C PREFETCH  ACCESS:          0  HIT:          0  MISS:          0
cpu0_L2C WRITEBACK ACCESS:    2107712  HIT:    2107359  MISS:        353
cpu0_L2C TRANSLATION ACCESS:     168999  HIT:     117334  MISS:      51665
cpu0_L2C PREFETCH  REQUESTED:          0  ISSUED:          0  USEFUL:          0  USELESS:          0
cpu0_L2C AVERAGE MISS LATENCY: 213.506 cycles
LLC TOTAL     ACCESS:   11017890  HIT:    4297009  MISS:    6720881
LLC LOAD      ACCESS:    9327996  HIT:    3461146  MISS:    5866850
LLC RFO       ACCESS:     133241  HIT:      63785  MISS:      69456
LLC PREFETCH  ACCESS:          0  HIT:          0  MISS:          0
LLC WRITEBACK ACCESS:    1504988  HIT:     760241  MISS:     744747
LLC TRANSLATION ACCESS:      51665  HIT:      11837  MISS:      39828
LLC PREFETCH  REQUESTED:          0  ISSUED:          0  USEFUL:          0  USELESS:          0
LLC AVERAGE MISS LATENCY: 272.489 cycles
OPTgen accesses: 172502
OPTgen hits: 50748
OPTgen hit rate: 29.4188



DRAM Statistics
 CHANNEL 0
 RQ ROW_BUFFER_HIT:      18380  ROW_BUFFER_MISS:    5956983
 DBUS AVG_CONGESTED_CYCLE:    3.96174
 WQ ROW_BUFFER_HIT:      45438  ROW_BUFFER_MISS:     916793  FULL:          0


CPU 0 Branch Prediction Accuracy: 85.5988% MPKI: 40.2398 Average ROB Occupancy at Mispredict: 17.127
Branch type MPKI
BRANCH_DIRECT_JUMP: 4e-05
BRANCH_INDIRECT: 0
BRANCH_CONDITIONAL: 40.2397
BRANCH_DIRECT_CALL: 0
BRANCH_INDIRECT_CALL: 0
BRANCH_RETURN: 0

