
*** ChampSim Multicore Out-of-Order Simulator ***

Warmup Instructions: 10000000
Simulation Instructions: 100000000
Number of CPUs: 1
Off-chip DRAM Size: 4 GiB Channels: 1 Width: 64-bit Data Rate: 3200 MT/s

VirtualMemory physical capacity: 8588881920 num_ppages: 2096895
VirtualMemory page size: 4096 log2_page_size: 12

CPU 0 runs /datasets/cs240c-wi22-a00-public/data/Assignment2/mcf_158B.trace.xz
CPU 0 Bimodal branch predictor
Basic BTB sets: 1024 ways: 8 indirect buffer size: 4096 RAS size: 64
Initialize Hawkeye state
Heartbeat CPU 0 instructions: 10000002 cycles: 3864086 heartbeat IPC: 2.58793 cumulative IPC: 2.58793 (Simulation time: 0 hr 0 min 57 sec) 

Warmup complete CPU 0 instructions: 10000002 cycles: 3864086 (Simulation time: 0 hr 0 min 57 sec) 

Heartbeat CPU 0 instructions: 20000000 cycles: 141699942 heartbeat IPC: 0.0725501 cumulative IPC: 0.0725501 (Simulation time: 0 hr 4 min 44 sec) 
Heartbeat CPU 0 instructions: 30000000 cycles: 275694156 heartbeat IPC: 0.0746301 cumulative IPC: 0.0735754 (Simulation time: 0 hr 8 min 19 sec) 
Heartbeat CPU 0 instructions: 40000001 cycles: 411070914 heartbeat IPC: 0.0738679 cumulative IPC: 0.0736726 (Simulation time: 0 hr 11 min 55 sec) 
Heartbeat CPU 0 instructions: 50000000 cycles: 532333388 heartbeat IPC: 0.0824657 cumulative IPC: 0.0756903 (Simulation time: 0 hr 15 min 17 sec) 
Heartbeat CPU 0 instructions: 60000000 cycles: 649629556 heartbeat IPC: 0.0852543 cumulative IPC: 0.0774275 (Simulation time: 0 hr 18 min 31 sec) 
Heartbeat CPU 0 instructions: 70000002 cycles: 763379583 heartbeat IPC: 0.0879121 cumulative IPC: 0.0789977 (Simulation time: 0 hr 21 min 52 sec) 
Heartbeat CPU 0 instructions: 80000000 cycles: 878900108 heartbeat IPC: 0.0865647 cumulative IPC: 0.0799967 (Simulation time: 0 hr 25 min 18 sec) 
Heartbeat CPU 0 instructions: 90000003 cycles: 998315768 heartbeat IPC: 0.0837411 cumulative IPC: 0.0804463 (Simulation time: 0 hr 28 min 48 sec) 
Heartbeat CPU 0 instructions: 100000003 cycles: 1119137950 heartbeat IPC: 0.0827663 cumulative IPC: 0.0806977 (Simulation time: 0 hr 32 min 19 sec) 
Heartbeat CPU 0 instructions: 110000001 cycles: 1242872134 heartbeat IPC: 0.0808184 cumulative IPC: 0.0807097 (Simulation time: 0 hr 35 min 48 sec) 
Finished CPU 0 instructions: 100000002 cycles: 1239008049 cumulative IPC: 0.0807097 (Simulation time: 0 hr 35 min 48 sec) 

ChampSim completed all CPUs

Region of Interest Statistics

CPU 0 cumulative IPC: 0.0807097 instructions: 100000002 cycles: 1239008049
cpu0_DTLB TOTAL     ACCESS:   23559303  HIT:   12737366  MISS:   10821937
cpu0_DTLB LOAD      ACCESS:   20439387  HIT:    9984636  MISS:   10454751
cpu0_DTLB RFO       ACCESS:    3119916  HIT:    2752730  MISS:     367186
cpu0_DTLB PREFETCH  ACCESS:          0  HIT:          0  MISS:          0
cpu0_DTLB WRITEBACK ACCESS:          0  HIT:          0  MISS:          0
cpu0_DTLB TRANSLATION ACCESS:          0  HIT:          0  MISS:          0
cpu0_DTLB PREFETCH  REQUESTED:          0  ISSUED:          0  USEFUL:          0  USELESS:          0
cpu0_DTLB AVERAGE MISS LATENCY: 11.9962 cycles
cpu0_ITLB TOTAL     ACCESS:   12954781  HIT:   12954781  MISS:          0
cpu0_ITLB LOAD      ACCESS:   12954781  HIT:   12954781  MISS:          0
cpu0_ITLB RFO       ACCESS:          0  HIT:          0  MISS:          0
cpu0_ITLB PREFETCH  ACCESS:          0  HIT:          0  MISS:          0
cpu0_ITLB WRITEBACK ACCESS:          0  HIT:          0  MISS:          0
cpu0_ITLB TRANSLATION ACCESS:          0  HIT:          0  MISS:          0
cpu0_ITLB PREFETCH  REQUESTED:          0  ISSUED:          0  USEFUL:          0  USELESS:          0
cpu0_ITLB AVERAGE MISS LATENCY: -nan cycles
cpu0_L1I TOTAL     ACCESS:         19  HIT:         14  MISS:          5
cpu0_L1I LOAD      ACCESS:         19  HIT:         14  MISS:          5
cpu0_L1I RFO       ACCESS:          0  HIT:          0  MISS:          0
cpu0_L1I PREFETCH  ACCESS:          0  HIT:          0  MISS:          0
cpu0_L1I WRITEBACK ACCESS:          0  HIT:          0  MISS:          0
cpu0_L1I TRANSLATION ACCESS:          0  HIT:          0  MISS:          0
cpu0_L1I PREFETCH  REQUESTED:          0  ISSUED:          0  USEFUL:          0  USELESS:          0
cpu0_L1I AVERAGE MISS LATENCY: 194.2 cycles
cpu0_STLB TOTAL     ACCESS:   10821937  HIT:    9710676  MISS:    1111261
cpu0_STLB LOAD      ACCESS:   10454751  HIT:    9350254  MISS:    1104497
cpu0_STLB RFO       ACCESS:     367186  HIT:     360422  MISS:       6764
cpu0_STLB PREFETCH  ACCESS:          0  HIT:          0  MISS:          0
cpu0_STLB WRITEBACK ACCESS:          0  HIT:          0  MISS:          0
cpu0_STLB TRANSLATION ACCESS:          0  HIT:          0  MISS:          0
cpu0_STLB PREFETCH  REQUESTED:          0  ISSUED:          0  USEFUL:          0  USELESS:          0
cpu0_STLB AVERAGE MISS LATENCY: 29.1409 cycles
cpu0_L1D TOTAL     ACCESS:   27622536  HIT:   14078685  MISS:   13543851
cpu0_L1D LOAD      ACCESS:   22275722  HIT:    9105874  MISS:   13169848
cpu0_L1D RFO       ACCESS:    4239389  HIT:    4034393  MISS:     204996
cpu0_L1D PREFETCH  ACCESS:          0  HIT:          0  MISS:          0
cpu0_L1D WRITEBACK ACCESS:          0  HIT:          0  MISS:          0
cpu0_L1D TRANSLATION ACCESS:    1107425  HIT:     938418  MISS:     169007
cpu0_L1D PREFETCH  REQUESTED:          0  ISSUED:          0  USEFUL:          0  USELESS:          0
cpu0_L1D AVERAGE MISS LATENCY: 165.344 cycles
cpu0_L2C TOTAL     ACCESS:   15650500  HIT:    6137261  MISS:    9513239
cpu0_L2C LOAD      ACCESS:   13169480  HIT:    3841501  MISS:    9327979
cpu0_L2C RFO       ACCESS:     204990  HIT:      71725  MISS:     133265
cpu0_L2C PREFETCH  ACCESS:          0  HIT:          0  MISS:          0
cpu0_L2C WRITEBACK ACCESS:    2107023  HIT:    2106671  MISS:        352
cpu0_L2C TRANSLATION ACCESS:     169007  HIT:     117364  MISS:      51643
cpu0_L2C PREFETCH  REQUESTED:          0  ISSUED:          0  USEFUL:          0  USELESS:          0
cpu0_L2C AVERAGE MISS LATENCY: 219.663 cycles
LLC TOTAL     ACCESS:   11017206  HIT:    4194675  MISS:    6822531
LLC LOAD      ACCESS:    9327977  HIT:    3324739  MISS:    6003238
LLC RFO       ACCESS:     133265  HIT:      61864  MISS:      71401
LLC PREFETCH  ACCESS:          0  HIT:          0  MISS:          0
LLC WRITEBACK ACCESS:    1504321  HIT:     801531  MISS:     702790
LLC TRANSLATION ACCESS:      51643  HIT:       6541  MISS:      45102
LLC PREFETCH  REQUESTED:          0  ISSUED:          0  USEFUL:          0  USELESS:          0
LLC AVERAGE MISS LATENCY: 277.014 cycles
OPTgen accesses: 172504
OPTgen hits: 73864
OPTgen hit rate: 42.8187



DRAM Statistics
 CHANNEL 0
 RQ ROW_BUFFER_HIT:      19020  ROW_BUFFER_MISS:    6099754
 DBUS AVG_CONGESTED_CYCLE:    3.96678
 WQ ROW_BUFFER_HIT:      42214  ROW_BUFFER_MISS:    1064518  FULL:          0


CPU 0 Branch Prediction Accuracy: 85.5988% MPKI: 40.2398 Average ROB Occupancy at Mispredict: 17.1025
Branch type MPKI
BRANCH_DIRECT_JUMP: 4e-05
BRANCH_INDIRECT: 0
BRANCH_CONDITIONAL: 40.2397
BRANCH_DIRECT_CALL: 0
BRANCH_INDIRECT_CALL: 0
BRANCH_RETURN: 0

