
*** ChampSim Multicore Out-of-Order Simulator ***

Warmup Instructions: 10000000
Simulation Instructions: 100000000
Number of CPUs: 1
Off-chip DRAM Size: 4 GiB Channels: 1 Width: 64-bit Data Rate: 3200 MT/s

VirtualMemory physical capacity: 8588881920 num_ppages: 2096895
VirtualMemory page size: 4096 log2_page_size: 12

CPU 0 runs /datasets/cs240c-wi22-a00-public/data/Assignment2/gcc_13B.trace.xz
CPU 0 Bimodal branch predictor
Basic BTB sets: 1024 ways: 8 indirect buffer size: 4096 RAS size: 64
Initialize Hawkeye state
Heartbeat CPU 0 instructions: 10000003 cycles: 2971496 heartbeat IPC: 3.36531 cumulative IPC: 3.36531 (Simulation time: 0 hr 0 min 41 sec) 

Warmup complete CPU 0 instructions: 10000003 cycles: 2971496 (Simulation time: 0 hr 0 min 41 sec) 

Heartbeat CPU 0 instructions: 20000003 cycles: 49450969 heartbeat IPC: 0.215149 cumulative IPC: 0.215149 (Simulation time: 0 hr 2 min 36 sec) 
Heartbeat CPU 0 instructions: 30000002 cycles: 102359198 heartbeat IPC: 0.189006 cumulative IPC: 0.201232 (Simulation time: 0 hr 4 min 34 sec) 
Heartbeat CPU 0 instructions: 40000004 cycles: 137767726 heartbeat IPC: 0.282418 cumulative IPC: 0.222558 (Simulation time: 0 hr 6 min 17 sec) 
Heartbeat CPU 0 instructions: 50000002 cycles: 155965854 heartbeat IPC: 0.549507 cumulative IPC: 0.261448 (Simulation time: 0 hr 6 min 58 sec) 
Heartbeat CPU 0 instructions: 60000003 cycles: 173966998 heartbeat IPC: 0.55552 cumulative IPC: 0.292405 (Simulation time: 0 hr 7 min 39 sec) 
Heartbeat CPU 0 instructions: 70000000 cycles: 191797488 heartbeat IPC: 0.560837 cumulative IPC: 0.317753 (Simulation time: 0 hr 8 min 18 sec) 
Heartbeat CPU 0 instructions: 80000002 cycles: 209152386 heartbeat IPC: 0.576206 cumulative IPC: 0.339508 (Simulation time: 0 hr 8 min 55 sec) 
Heartbeat CPU 0 instructions: 90000000 cycles: 227287952 heartbeat IPC: 0.551403 cumulative IPC: 0.356639 (Simulation time: 0 hr 9 min 33 sec) 
Heartbeat CPU 0 instructions: 100000000 cycles: 245029725 heartbeat IPC: 0.563642 cumulative IPC: 0.371811 (Simulation time: 0 hr 10 min 11 sec) 
Heartbeat CPU 0 instructions: 110000002 cycles: 269886023 heartbeat IPC: 0.402313 cumulative IPC: 0.374652 (Simulation time: 0 hr 10 min 57 sec) 
Finished CPU 0 instructions: 100000004 cycles: 266914528 cumulative IPC: 0.374652 (Simulation time: 0 hr 10 min 57 sec) 

ChampSim completed all CPUs

Region of Interest Statistics

CPU 0 cumulative IPC: 0.374652 instructions: 100000004 cycles: 266914528
cpu0_DTLB TOTAL     ACCESS:   19462245  HIT:   19360056  MISS:     102189
cpu0_DTLB LOAD      ACCESS:   14027764  HIT:   13940544  MISS:      87220
cpu0_DTLB RFO       ACCESS:    5434481  HIT:    5419512  MISS:      14969
cpu0_DTLB PREFETCH  ACCESS:          0  HIT:          0  MISS:          0
cpu0_DTLB WRITEBACK ACCESS:          0  HIT:          0  MISS:          0
cpu0_DTLB TRANSLATION ACCESS:          0  HIT:          0  MISS:          0
cpu0_DTLB PREFETCH  REQUESTED:          0  ISSUED:          0  USEFUL:          0  USELESS:          0
cpu0_DTLB AVERAGE MISS LATENCY: 29.0304 cycles
cpu0_ITLB TOTAL     ACCESS:   10352400  HIT:   10352339  MISS:         61
cpu0_ITLB LOAD      ACCESS:   10352400  HIT:   10352339  MISS:         61
cpu0_ITLB RFO       ACCESS:          0  HIT:          0  MISS:          0
cpu0_ITLB PREFETCH  ACCESS:          0  HIT:          0  MISS:          0
cpu0_ITLB WRITEBACK ACCESS:          0  HIT:          0  MISS:          0
cpu0_ITLB TRANSLATION ACCESS:          0  HIT:          0  MISS:          0
cpu0_ITLB PREFETCH  REQUESTED:          0  ISSUED:          0  USEFUL:          0  USELESS:          0
cpu0_ITLB AVERAGE MISS LATENCY: 143.852 cycles
cpu0_L1I TOTAL     ACCESS:    6565305  HIT:    6564933  MISS:        372
cpu0_L1I LOAD      ACCESS:    6565305  HIT:    6564933  MISS:        372
cpu0_L1I RFO       ACCESS:          0  HIT:          0  MISS:          0
cpu0_L1I PREFETCH  ACCESS:          0  HIT:          0  MISS:          0
cpu0_L1I WRITEBACK ACCESS:          0  HIT:          0  MISS:          0
cpu0_L1I TRANSLATION ACCESS:          0  HIT:          0  MISS:          0
cpu0_L1I PREFETCH  REQUESTED:          0  ISSUED:          0  USEFUL:          0  USELESS:          0
cpu0_L1I AVERAGE MISS LATENCY: 173.452 cycles
cpu0_STLB TOTAL     ACCESS:     102250  HIT:      33350  MISS:      68900
cpu0_STLB LOAD      ACCESS:      87281  HIT:      30309  MISS:      56972
cpu0_STLB RFO       ACCESS:      14969  HIT:       3041  MISS:      11928
cpu0_STLB PREFETCH  ACCESS:          0  HIT:          0  MISS:          0
cpu0_STLB WRITEBACK ACCESS:          0  HIT:          0  MISS:          0
cpu0_STLB TRANSLATION ACCESS:          0  HIT:          0  MISS:          0
cpu0_STLB PREFETCH  REQUESTED:          0  ISSUED:          0  USEFUL:          0  USELESS:          0
cpu0_STLB AVERAGE MISS LATENCY: 29.8214 cycles
cpu0_L1D TOTAL     ACCESS:   26263980  HIT:   24720220  MISS:    1543760
cpu0_L1D LOAD      ACCESS:   12774575  HIT:   11507903  MISS:    1266672
cpu0_L1D RFO       ACCESS:   13420715  HIT:   13144699  MISS:     276016
cpu0_L1D PREFETCH  ACCESS:          0  HIT:          0  MISS:          0
cpu0_L1D WRITEBACK ACCESS:          0  HIT:          0  MISS:          0
cpu0_L1D TRANSLATION ACCESS:      68690  HIT:      67618  MISS:       1072
cpu0_L1D PREFETCH  REQUESTED:          0  ISSUED:          0  USEFUL:          0  USELESS:          0
cpu0_L1D AVERAGE MISS LATENCY: 262.521 cycles
cpu0_L2C TOTAL     ACCESS:    1955881  HIT:     460821  MISS:    1495060
cpu0_L2C LOAD      ACCESS:    1267044  HIT:      46441  MISS:    1220603
cpu0_L2C RFO       ACCESS:     276016  HIT:       1819  MISS:     274197
cpu0_L2C PREFETCH  ACCESS:          0  HIT:          0  MISS:          0
cpu0_L2C WRITEBACK ACCESS:     411749  HIT:     411698  MISS:         51
cpu0_L2C TRANSLATION ACCESS:       1072  HIT:        863  MISS:        209
cpu0_L2C PREFETCH  REQUESTED:          0  ISSUED:          0  USEFUL:          0  USELESS:          0
cpu0_L2C AVERAGE MISS LATENCY: 259.722 cycles
LLC TOTAL     ACCESS:    1904467  HIT:     268351  MISS:    1636116
LLC LOAD      ACCESS:    1220603  HIT:     148223  MISS:    1072380
LLC RFO       ACCESS:     274197  HIT:      29863  MISS:     244334
LLC PREFETCH  ACCESS:          0  HIT:          0  MISS:          0
LLC WRITEBACK ACCESS:     409458  HIT:      90152  MISS:     319306
LLC TRANSLATION ACCESS:        209  HIT:        113  MISS:         96
LLC PREFETCH  REQUESTED:          0  ISSUED:          0  USEFUL:          0  USELESS:          0
LLC AVERAGE MISS LATENCY: 218.126 cycles
OPTgen accesses: 30444
OPTgen hits: 5160
OPTgen hit rate: 16.9492



DRAM Statistics
 CHANNEL 0
 RQ ROW_BUFFER_HIT:     206888  ROW_BUFFER_MISS:    1109865
 DBUS AVG_CONGESTED_CYCLE:    3.93245
 WQ ROW_BUFFER_HIT:      45453  ROW_BUFFER_MISS:     342394  FULL:      28568


CPU 0 Branch Prediction Accuracy: 87.437% MPKI: 28.6507 Average ROB Occupancy at Mispredict: 19.8577
Branch type MPKI
BRANCH_DIRECT_JUMP: 0.0008
BRANCH_INDIRECT: 0.00403
BRANCH_CONDITIONAL: 28.6428
BRANCH_DIRECT_CALL: 0.00114
BRANCH_INDIRECT_CALL: 0.0008
BRANCH_RETURN: 0.00114

