
*** ChampSim Multicore Out-of-Order Simulator ***

Warmup Instructions: 10000000
Simulation Instructions: 100000000
Number of CPUs: 1
Off-chip DRAM Size: 4 GiB Channels: 1 Width: 64-bit Data Rate: 3200 MT/s

VirtualMemory physical capacity: 8588881920 num_ppages: 2096895
VirtualMemory page size: 4096 log2_page_size: 12

CPU 0 runs /datasets/cs240c-wi22-a00-public/data/Assignment2/GemsFDTD_109B.trace.xz
CPU 0 Bimodal branch predictor
Basic BTB sets: 1024 ways: 8 indirect buffer size: 4096 RAS size: 64
Initialize Hawkeye state
Heartbeat CPU 0 instructions: 10000004 cycles: 4294006 heartbeat IPC: 2.32883 cumulative IPC: 2.32883 (Simulation time: 0 hr 1 min 10 sec) 

Warmup complete CPU 0 instructions: 10000004 cycles: 4294006 (Simulation time: 0 hr 1 min 10 sec) 

Heartbeat CPU 0 instructions: 20000000 cycles: 35031605 heartbeat IPC: 0.325334 cumulative IPC: 0.325334 (Simulation time: 0 hr 5 min 0 sec) 
Heartbeat CPU 0 instructions: 30000004 cycles: 56400717 heartbeat IPC: 0.467965 cumulative IPC: 0.383828 (Simulation time: 0 hr 7 min 19 sec) 
Heartbeat CPU 0 instructions: 40000004 cycles: 62602614 heartbeat IPC: 1.61241 cumulative IPC: 0.514504 (Simulation time: 0 hr 8 min 15 sec) 
Heartbeat CPU 0 instructions: 50000002 cycles: 83567430 heartbeat IPC: 0.47699 cumulative IPC: 0.504583 (Simulation time: 0 hr 10 min 36 sec) 
Heartbeat CPU 0 instructions: 60000002 cycles: 123817923 heartbeat IPC: 0.248444 cumulative IPC: 0.418326 (Simulation time: 0 hr 15 min 9 sec) 
Heartbeat CPU 0 instructions: 70000001 cycles: 163510641 heartbeat IPC: 0.251935 cumulative IPC: 0.376845 (Simulation time: 0 hr 19 min 43 sec) 
Heartbeat CPU 0 instructions: 80000003 cycles: 203239353 heartbeat IPC: 0.251707 cumulative IPC: 0.351855 (Simulation time: 0 hr 24 min 21 sec) 
Heartbeat CPU 0 instructions: 90000000 cycles: 242931565 heartbeat IPC: 0.251939 cumulative IPC: 0.335236 (Simulation time: 0 hr 28 min 52 sec) 
Heartbeat CPU 0 instructions: 100000002 cycles: 282643880 heartbeat IPC: 0.251811 cumulative IPC: 0.323334 (Simulation time: 0 hr 33 min 27 sec) 
Heartbeat CPU 0 instructions: 110000004 cycles: 322313486 heartbeat IPC: 0.252082 cumulative IPC: 0.314446 (Simulation time: 0 hr 37 min 57 sec) 
Finished CPU 0 instructions: 100000000 cycles: 318019480 cumulative IPC: 0.314446 (Simulation time: 0 hr 37 min 57 sec) 

ChampSim completed all CPUs

Region of Interest Statistics

CPU 0 cumulative IPC: 0.314446 instructions: 100000000 cycles: 318019480
cpu0_DTLB TOTAL     ACCESS:   26446881  HIT:   26247457  MISS:     199424
cpu0_DTLB LOAD      ACCESS:   21016341  HIT:   20818919  MISS:     197422
cpu0_DTLB RFO       ACCESS:    5430540  HIT:    5428538  MISS:       2002
cpu0_DTLB PREFETCH  ACCESS:          0  HIT:          0  MISS:          0
cpu0_DTLB WRITEBACK ACCESS:          0  HIT:          0  MISS:          0
cpu0_DTLB TRANSLATION ACCESS:          0  HIT:          0  MISS:          0
cpu0_DTLB PREFETCH  REQUESTED:          0  ISSUED:          0  USEFUL:          0  USELESS:          0
cpu0_DTLB AVERAGE MISS LATENCY: 425.09 cycles
cpu0_ITLB TOTAL     ACCESS:    2049519  HIT:    2049501  MISS:         18
cpu0_ITLB LOAD      ACCESS:    2049519  HIT:    2049501  MISS:         18
cpu0_ITLB RFO       ACCESS:          0  HIT:          0  MISS:          0
cpu0_ITLB PREFETCH  ACCESS:          0  HIT:          0  MISS:          0
cpu0_ITLB WRITEBACK ACCESS:          0  HIT:          0  MISS:          0
cpu0_ITLB TRANSLATION ACCESS:          0  HIT:          0  MISS:          0
cpu0_ITLB PREFETCH  REQUESTED:          0  ISSUED:          0  USEFUL:          0  USELESS:          0
cpu0_ITLB AVERAGE MISS LATENCY: 249.222 cycles
cpu0_L1I TOTAL     ACCESS:    1722895  HIT:    1722465  MISS:        430
cpu0_L1I LOAD      ACCESS:    1722895  HIT:    1722465  MISS:        430
cpu0_L1I RFO       ACCESS:          0  HIT:          0  MISS:          0
cpu0_L1I PREFETCH  ACCESS:          0  HIT:          0  MISS:          0
cpu0_L1I WRITEBACK ACCESS:          0  HIT:          0  MISS:          0
cpu0_L1I TRANSLATION ACCESS:          0  HIT:          0  MISS:          0
cpu0_L1I PREFETCH  REQUESTED:          0  ISSUED:          0  USEFUL:          0  USELESS:          0
cpu0_L1I AVERAGE MISS LATENCY: 368.07 cycles
cpu0_STLB TOTAL     ACCESS:     199442  HIT:      33981  MISS:     165461
cpu0_STLB LOAD      ACCESS:     197440  HIT:      32673  MISS:     164767
cpu0_STLB RFO       ACCESS:       2002  HIT:       1308  MISS:        694
cpu0_STLB PREFETCH  ACCESS:          0  HIT:          0  MISS:          0
cpu0_STLB WRITEBACK ACCESS:          0  HIT:          0  MISS:          0
cpu0_STLB TRANSLATION ACCESS:          0  HIT:          0  MISS:          0
cpu0_STLB PREFETCH  REQUESTED:          0  ISSUED:          0  USEFUL:          0  USELESS:          0
cpu0_STLB AVERAGE MISS LATENCY: 501.406 cycles
cpu0_L1D TOTAL     ACCESS:   22886576  HIT:   19656269  MISS:    3230307
cpu0_L1D LOAD      ACCESS:   13787148  HIT:   10687139  MISS:    3100009
cpu0_L1D RFO       ACCESS:    9009129  HIT:    8881517  MISS:     127612
cpu0_L1D PREFETCH  ACCESS:          0  HIT:          0  MISS:          0
cpu0_L1D WRITEBACK ACCESS:          0  HIT:          0  MISS:          0
cpu0_L1D TRANSLATION ACCESS:      90299  HIT:      87613  MISS:       2686
cpu0_L1D PREFETCH  REQUESTED:          0  ISSUED:          0  USEFUL:          0  USELESS:          0
cpu0_L1D AVERAGE MISS LATENCY: 718.569 cycles
cpu0_L2C TOTAL     ACCESS:    4595569  HIT:    1423816  MISS:    3171753
cpu0_L2C LOAD      ACCESS:    3100439  HIT:      41448  MISS:    3058991
cpu0_L2C RFO       ACCESS:     127612  HIT:      15144  MISS:     112468
cpu0_L2C PREFETCH  ACCESS:          0  HIT:          0  MISS:          0
cpu0_L2C WRITEBACK ACCESS:    1364832  HIT:    1364734  MISS:         98
cpu0_L2C TRANSLATION ACCESS:       2686  HIT:       2490  MISS:        196
cpu0_L2C PREFETCH  REQUESTED:          0  ISSUED:          0  USEFUL:          0  USELESS:          0
cpu0_L2C AVERAGE MISS LATENCY: 720.664 cycles
LLC TOTAL     ACCESS:    4522875  HIT:    1082176  MISS:    3440699
LLC LOAD      ACCESS:    3058989  HIT:     709810  MISS:    2349179
LLC RFO       ACCESS:     112468  HIT:      94352  MISS:      18116
LLC PREFETCH  ACCESS:          0  HIT:          0  MISS:          0
LLC WRITEBACK ACCESS:    1351222  HIT:     277920  MISS:    1073302
LLC TRANSLATION ACCESS:        196  HIT:         94  MISS:        102
LLC PREFETCH  REQUESTED:          0  ISSUED:          0  USEFUL:          0  USELESS:          0
LLC AVERAGE MISS LATENCY: 644.966 cycles
OPTgen accesses: 53567
OPTgen hits: 13667
OPTgen hit rate: 25.5138



DRAM Statistics
 CHANNEL 0
 RQ ROW_BUFFER_HIT:      44302  ROW_BUFFER_MISS:    2323056
 DBUS AVG_CONGESTED_CYCLE:    3.99639
 WQ ROW_BUFFER_HIT:      21354  ROW_BUFFER_MISS:    1240851  FULL:      58290


CPU 0 Branch Prediction Accuracy: 98.929% MPKI: 0.55515 Average ROB Occupancy at Mispredict: 266.769
Branch type MPKI
BRANCH_DIRECT_JUMP: 0.00045
BRANCH_INDIRECT: 1e-05
BRANCH_CONDITIONAL: 0.5534
BRANCH_DIRECT_CALL: 0.00065
BRANCH_INDIRECT_CALL: 0
BRANCH_RETURN: 0.00064

