
*** ChampSim Multicore Out-of-Order Simulator ***

Warmup Instructions: 10000000
Simulation Instructions: 100000000
Number of CPUs: 1
Off-chip DRAM Size: 4 GiB Channels: 1 Width: 64-bit Data Rate: 3200 MT/s

VirtualMemory physical capacity: 8588881920 num_ppages: 2096895
VirtualMemory page size: 4096 log2_page_size: 12

CPU 0 runs /datasets/cs240c-wi22-a00-public/data/Assignment2/wrf_1228B.trace.xz
CPU 0 Bimodal branch predictor
Basic BTB sets: 1024 ways: 8 indirect buffer size: 4096 RAS size: 64
Initialize Hawkeye state
Heartbeat CPU 0 instructions: 10000001 cycles: 3904471 heartbeat IPC: 2.56117 cumulative IPC: 2.56117 (Simulation time: 0 hr 0 min 59 sec) 

Warmup complete CPU 0 instructions: 10000001 cycles: 3904471 (Simulation time: 0 hr 0 min 59 sec) 

Heartbeat CPU 0 instructions: 20000001 cycles: 12422378 heartbeat IPC: 1.174 cumulative IPC: 1.174 (Simulation time: 0 hr 2 min 17 sec) 
Heartbeat CPU 0 instructions: 30000003 cycles: 23930178 heartbeat IPC: 0.868976 cumulative IPC: 0.998716 (Simulation time: 0 hr 3 min 55 sec) 
Heartbeat CPU 0 instructions: 40000003 cycles: 37052182 heartbeat IPC: 0.762079 cumulative IPC: 0.90504 (Simulation time: 0 hr 5 min 46 sec) 
Heartbeat CPU 0 instructions: 50000001 cycles: 44944371 heartbeat IPC: 1.26708 cumulative IPC: 0.974661 (Simulation time: 0 hr 7 min 1 sec) 
Heartbeat CPU 0 instructions: 60000003 cycles: 55191105 heartbeat IPC: 0.975921 cumulative IPC: 0.974913 (Simulation time: 0 hr 8 min 33 sec) 
Heartbeat CPU 0 instructions: 70000001 cycles: 66449575 heartbeat IPC: 0.88822 cumulative IPC: 0.959308 (Simulation time: 0 hr 9 min 57 sec) 
Heartbeat CPU 0 instructions: 80000004 cycles: 76159568 heartbeat IPC: 1.02987 cumulative IPC: 0.96879 (Simulation time: 0 hr 11 min 4 sec) 
Heartbeat CPU 0 instructions: 90000001 cycles: 85844563 heartbeat IPC: 1.03252 cumulative IPC: 0.976323 (Simulation time: 0 hr 12 min 10 sec) 
Heartbeat CPU 0 instructions: 100000002 cycles: 95522858 heartbeat IPC: 1.03324 cumulative IPC: 0.982336 (Simulation time: 0 hr 13 min 17 sec) 
Heartbeat CPU 0 instructions: 110000000 cycles: 105193021 heartbeat IPC: 1.03411 cumulative IPC: 0.987278 (Simulation time: 0 hr 14 min 22 sec) 
Finished CPU 0 instructions: 100000004 cycles: 101288551 cumulative IPC: 0.987278 (Simulation time: 0 hr 14 min 22 sec) 

ChampSim completed all CPUs

Region of Interest Statistics

CPU 0 cumulative IPC: 0.987278 instructions: 100000004 cycles: 101288551
cpu0_DTLB TOTAL     ACCESS:   19673208  HIT:   19576972  MISS:      96236
cpu0_DTLB LOAD      ACCESS:   17654993  HIT:   17573065  MISS:      81928
cpu0_DTLB RFO       ACCESS:    2018215  HIT:    2003907  MISS:      14308
cpu0_DTLB PREFETCH  ACCESS:          0  HIT:          0  MISS:          0
cpu0_DTLB WRITEBACK ACCESS:          0  HIT:          0  MISS:          0
cpu0_DTLB TRANSLATION ACCESS:          0  HIT:          0  MISS:          0
cpu0_DTLB PREFETCH  REQUESTED:          0  ISSUED:          0  USEFUL:          0  USELESS:          0
cpu0_DTLB AVERAGE MISS LATENCY: 20.0299 cycles
cpu0_ITLB TOTAL     ACCESS:    4201471  HIT:    4201459  MISS:         12
cpu0_ITLB LOAD      ACCESS:    4201471  HIT:    4201459  MISS:         12
cpu0_ITLB RFO       ACCESS:          0  HIT:          0  MISS:          0
cpu0_ITLB PREFETCH  ACCESS:          0  HIT:          0  MISS:          0
cpu0_ITLB WRITEBACK ACCESS:          0  HIT:          0  MISS:          0
cpu0_ITLB TRANSLATION ACCESS:          0  HIT:          0  MISS:          0
cpu0_ITLB PREFETCH  REQUESTED:          0  ISSUED:          0  USEFUL:          0  USELESS:          0
cpu0_ITLB AVERAGE MISS LATENCY: 220.583 cycles
cpu0_L1I TOTAL     ACCESS:    6678961  HIT:    6678213  MISS:        748
cpu0_L1I LOAD      ACCESS:    6678961  HIT:    6678213  MISS:        748
cpu0_L1I RFO       ACCESS:          0  HIT:          0  MISS:          0
cpu0_L1I PREFETCH  ACCESS:          0  HIT:          0  MISS:          0
cpu0_L1I WRITEBACK ACCESS:          0  HIT:          0  MISS:          0
cpu0_L1I TRANSLATION ACCESS:          0  HIT:          0  MISS:          0
cpu0_L1I PREFETCH  REQUESTED:          0  ISSUED:          0  USEFUL:          0  USELESS:          0
cpu0_L1I AVERAGE MISS LATENCY: 360.401 cycles
cpu0_STLB TOTAL     ACCESS:      96248  HIT:      86694  MISS:       9554
cpu0_STLB LOAD      ACCESS:      81940  HIT:      75032  MISS:       6908
cpu0_STLB RFO       ACCESS:      14308  HIT:      11662  MISS:       2646
cpu0_STLB PREFETCH  ACCESS:          0  HIT:          0  MISS:          0
cpu0_STLB WRITEBACK ACCESS:          0  HIT:          0  MISS:          0
cpu0_STLB TRANSLATION ACCESS:          0  HIT:          0  MISS:          0
cpu0_STLB PREFETCH  REQUESTED:          0  ISSUED:          0  USEFUL:          0  USELESS:          0
cpu0_STLB AVERAGE MISS LATENCY: 111.349 cycles
cpu0_L1D TOTAL     ACCESS:   18872918  HIT:   17514516  MISS:    1358402
cpu0_L1D LOAD      ACCESS:   14825190  HIT:   13726117  MISS:    1099073
cpu0_L1D RFO       ACCESS:    4038183  HIT:    3779640  MISS:     258543
cpu0_L1D PREFETCH  ACCESS:          0  HIT:          0  MISS:          0
cpu0_L1D WRITEBACK ACCESS:          0  HIT:          0  MISS:          0
cpu0_L1D TRANSLATION ACCESS:       9545  HIT:       8759  MISS:        786
cpu0_L1D PREFETCH  REQUESTED:          0  ISSUED:          0  USEFUL:          0  USELESS:          0
cpu0_L1D AVERAGE MISS LATENCY: 211.809 cycles
cpu0_L2C TOTAL     ACCESS:    1836351  HIT:     802907  MISS:    1033444
cpu0_L2C LOAD      ACCESS:    1099792  HIT:     287170  MISS:     812622
cpu0_L2C RFO       ACCESS:     258542  HIT:      39524  MISS:     219018
cpu0_L2C PREFETCH  ACCESS:          0  HIT:          0  MISS:          0
cpu0_L2C WRITEBACK ACCESS:     477231  HIT:     475540  MISS:       1691
cpu0_L2C TRANSLATION ACCESS:        786  HIT:        673  MISS:        113
cpu0_L2C PREFETCH  REQUESTED:          0  ISSUED:          0  USEFUL:          0  USELESS:          0
cpu0_L2C AVERAGE MISS LATENCY: 264.183 cycles
LLC TOTAL     ACCESS:    1463813  HIT:     472602  MISS:     991211
LLC LOAD      ACCESS:     812622  HIT:     183160  MISS:     629462
LLC RFO       ACCESS:     219018  HIT:      35461  MISS:     183557
LLC PREFETCH  ACCESS:          0  HIT:          0  MISS:          0
LLC WRITEBACK ACCESS:     432060  HIT:     253941  MISS:     178119
LLC TRANSLATION ACCESS:        113  HIT:         40  MISS:         73
LLC PREFETCH  REQUESTED:          0  ISSUED:          0  USEFUL:          0  USELESS:          0
LLC AVERAGE MISS LATENCY: 253.578 cycles
OPTgen accesses: 20219
OPTgen hits: 5709
OPTgen hit rate: 28.2358



DRAM Statistics
 CHANNEL 0
 RQ ROW_BUFFER_HIT:      93544  ROW_BUFFER_MISS:     719219
 DBUS AVG_CONGESTED_CYCLE:     3.9286
 WQ ROW_BUFFER_HIT:      27525  ROW_BUFFER_MISS:     271951  FULL:          0


CPU 0 Branch Prediction Accuracy: 97.4481% MPKI: 2.04611 Average ROB Occupancy at Mispredict: 259.736
Branch type MPKI
BRANCH_DIRECT_JUMP: 0.00028
BRANCH_INDIRECT: 0
BRANCH_CONDITIONAL: 2.0456
BRANCH_DIRECT_CALL: 0.00011
BRANCH_INDIRECT_CALL: 0
BRANCH_RETURN: 0.00012

