
*** ChampSim Multicore Out-of-Order Simulator ***

Warmup Instructions: 10000000
Simulation Instructions: 100000000
Number of CPUs: 1
Off-chip DRAM Size: 4 GiB Channels: 1 Width: 64-bit Data Rate: 3200 MT/s

VirtualMemory physical capacity: 8588881920 num_ppages: 2096895
VirtualMemory page size: 4096 log2_page_size: 12

CPU 0 runs /datasets/cs240c-wi22-a00-public/data/Assignment2/sphinx3_2520B.trace.xz
CPU 0 Bimodal branch predictor
Basic BTB sets: 1024 ways: 8 indirect buffer size: 4096 RAS size: 64
Initialize Hawkeye state
Heartbeat CPU 0 instructions: 10000000 cycles: 2589703 heartbeat IPC: 3.86145 cumulative IPC: 3.86145 (Simulation time: 0 hr 0 min 29 sec) 

Warmup complete CPU 0 instructions: 10000004 cycles: 2589704 (Simulation time: 0 hr 0 min 29 sec) 

Heartbeat CPU 0 instructions: 20000002 cycles: 9347176 heartbeat IPC: 1.47984 cumulative IPC: 1.47984 (Simulation time: 0 hr 1 min 14 sec) 
Heartbeat CPU 0 instructions: 30000002 cycles: 16228808 heartbeat IPC: 1.45314 cumulative IPC: 1.46637 (Simulation time: 0 hr 1 min 56 sec) 
Heartbeat CPU 0 instructions: 40000002 cycles: 23219426 heartbeat IPC: 1.43049 cumulative IPC: 1.45421 (Simulation time: 0 hr 2 min 40 sec) 
Heartbeat CPU 0 instructions: 50000004 cycles: 30223031 heartbeat IPC: 1.42784 cumulative IPC: 1.44753 (Simulation time: 0 hr 3 min 24 sec) 
Heartbeat CPU 0 instructions: 60000001 cycles: 36906018 heartbeat IPC: 1.49634 cumulative IPC: 1.45703 (Simulation time: 0 hr 4 min 7 sec) 
Heartbeat CPU 0 instructions: 70000001 cycles: 43284892 heartbeat IPC: 1.56767 cumulative IPC: 1.47438 (Simulation time: 0 hr 4 min 50 sec) 
Heartbeat CPU 0 instructions: 80000000 cycles: 49965858 heartbeat IPC: 1.49679 cumulative IPC: 1.47754 (Simulation time: 0 hr 5 min 34 sec) 
Heartbeat CPU 0 instructions: 90000000 cycles: 56192550 heartbeat IPC: 1.60599 cumulative IPC: 1.49246 (Simulation time: 0 hr 6 min 15 sec) 
Heartbeat CPU 0 instructions: 100000002 cycles: 62528653 heartbeat IPC: 1.57826 cumulative IPC: 1.50153 (Simulation time: 0 hr 6 min 56 sec) 
Heartbeat CPU 0 instructions: 110000003 cycles: 71283593 heartbeat IPC: 1.14221 cumulative IPC: 1.45573 (Simulation time: 0 hr 7 min 46 sec) 
Finished CPU 0 instructions: 100000004 cycles: 68693890 cumulative IPC: 1.45573 (Simulation time: 0 hr 7 min 46 sec) 

ChampSim completed all CPUs

Region of Interest Statistics

CPU 0 cumulative IPC: 1.45573 instructions: 100000004 cycles: 68693890
cpu0_DTLB TOTAL     ACCESS:   16045697  HIT:   15989788  MISS:      55909
cpu0_DTLB LOAD      ACCESS:   15002293  HIT:   14949732  MISS:      52561
cpu0_DTLB RFO       ACCESS:    1043404  HIT:    1040056  MISS:       3348
cpu0_DTLB PREFETCH  ACCESS:          0  HIT:          0  MISS:          0
cpu0_DTLB WRITEBACK ACCESS:          0  HIT:          0  MISS:          0
cpu0_DTLB TRANSLATION ACCESS:          0  HIT:          0  MISS:          0
cpu0_DTLB PREFETCH  REQUESTED:          0  ISSUED:          0  USEFUL:          0  USELESS:          0
cpu0_DTLB AVERAGE MISS LATENCY: 11.4429 cycles
cpu0_ITLB TOTAL     ACCESS:    9339251  HIT:    9339209  MISS:         42
cpu0_ITLB LOAD      ACCESS:    9339251  HIT:    9339209  MISS:         42
cpu0_ITLB RFO       ACCESS:          0  HIT:          0  MISS:          0
cpu0_ITLB PREFETCH  ACCESS:          0  HIT:          0  MISS:          0
cpu0_ITLB WRITEBACK ACCESS:          0  HIT:          0  MISS:          0
cpu0_ITLB TRANSLATION ACCESS:          0  HIT:          0  MISS:          0
cpu0_ITLB PREFETCH  REQUESTED:          0  ISSUED:          0  USEFUL:          0  USELESS:          0
cpu0_ITLB AVERAGE MISS LATENCY: 151.429 cycles
cpu0_L1I TOTAL     ACCESS:     267793  HIT:     266502  MISS:       1291
cpu0_L1I LOAD      ACCESS:     267793  HIT:     266502  MISS:       1291
cpu0_L1I RFO       ACCESS:          0  HIT:          0  MISS:          0
cpu0_L1I PREFETCH  ACCESS:          0  HIT:          0  MISS:          0
cpu0_L1I WRITEBACK ACCESS:          0  HIT:          0  MISS:          0
cpu0_L1I TRANSLATION ACCESS:          0  HIT:          0  MISS:          0
cpu0_L1I PREFETCH  REQUESTED:          0  ISSUED:          0  USEFUL:          0  USELESS:          0
cpu0_L1I AVERAGE MISS LATENCY: 136.902 cycles
cpu0_STLB TOTAL     ACCESS:      55951  HIT:      51144  MISS:       4807
cpu0_STLB LOAD      ACCESS:      52603  HIT:      47928  MISS:       4675
cpu0_STLB RFO       ACCESS:       3348  HIT:       3216  MISS:        132
cpu0_STLB PREFETCH  ACCESS:          0  HIT:          0  MISS:          0
cpu0_STLB WRITEBACK ACCESS:          0  HIT:          0  MISS:          0
cpu0_STLB TRANSLATION ACCESS:          0  HIT:          0  MISS:          0
cpu0_STLB PREFETCH  REQUESTED:          0  ISSUED:          0  USEFUL:          0  USELESS:          0
cpu0_STLB AVERAGE MISS LATENCY: 29.1421 cycles
cpu0_L1D TOTAL     ACCESS:   11424437  HIT:   10085053  MISS:    1339384
cpu0_L1D LOAD      ACCESS:   10089996  HIT:    8876261  MISS:    1213735
cpu0_L1D RFO       ACCESS:    1329907  HIT:    1204372  MISS:     125535
cpu0_L1D PREFETCH  ACCESS:          0  HIT:          0  MISS:          0
cpu0_L1D WRITEBACK ACCESS:          0  HIT:          0  MISS:          0
cpu0_L1D TRANSLATION ACCESS:       4534  HIT:       4420  MISS:        114
cpu0_L1D PREFETCH  REQUESTED:          0  ISSUED:          0  USEFUL:          0  USELESS:          0
cpu0_L1D AVERAGE MISS LATENCY: 93.2624 cycles
cpu0_L2C TOTAL     ACCESS:    1472884  HIT:     251116  MISS:    1221768
cpu0_L2C LOAD      ACCESS:    1215025  HIT:     113613  MISS:    1101412
cpu0_L2C RFO       ACCESS:     125535  HIT:       5426  MISS:     120109
cpu0_L2C PREFETCH  ACCESS:          0  HIT:          0  MISS:          0
cpu0_L2C WRITEBACK ACCESS:     132210  HIT:     132048  MISS:        162
cpu0_L2C TRANSLATION ACCESS:        114  HIT:         29  MISS:         85
cpu0_L2C PREFETCH  REQUESTED:          0  ISSUED:          0  USEFUL:          0  USELESS:          0
cpu0_L2C AVERAGE MISS LATENCY: 90.2923 cycles
LLC TOTAL     ACCESS:    1348257  HIT:     855161  MISS:     493096
LLC LOAD      ACCESS:    1101412  HIT:     670170  MISS:     431242
LLC RFO       ACCESS:     120109  HIT:      73933  MISS:      46176
LLC PREFETCH  ACCESS:          0  HIT:          0  MISS:          0
LLC WRITEBACK ACCESS:     126651  HIT:     111039  MISS:      15612
LLC TRANSLATION ACCESS:         85  HIT:         19  MISS:         66
LLC PREFETCH  REQUESTED:          0  ISSUED:          0  USEFUL:          0  USELESS:          0
LLC AVERAGE MISS LATENCY: 171.69 cycles
OPTgen accesses: 21070
OPTgen hits: 15516
OPTgen hit rate: 73.6402



DRAM Statistics
 CHANNEL 0
 RQ ROW_BUFFER_HIT:     121033  ROW_BUFFER_MISS:     354445
 DBUS AVG_CONGESTED_CYCLE:    3.90428
 WQ ROW_BUFFER_HIT:      21692  ROW_BUFFER_MISS:      31905  FULL:       1787


CPU 0 Branch Prediction Accuracy: 93.1904% MPKI: 5.9173 Average ROB Occupancy at Mispredict: 199.597
Branch type MPKI
BRANCH_DIRECT_JUMP: 0.00106
BRANCH_INDIRECT: 0
BRANCH_CONDITIONAL: 5.91482
BRANCH_DIRECT_CALL: 0.00069
BRANCH_INDIRECT_CALL: 3e-05
BRANCH_RETURN: 0.0007

