
*** ChampSim Multicore Out-of-Order Simulator ***

Warmup Instructions: 10000000
Simulation Instructions: 100000000
Number of CPUs: 1
Off-chip DRAM Size: 4 GiB Channels: 1 Width: 64-bit Data Rate: 3200 MT/s

VirtualMemory physical capacity: 8588881920 num_ppages: 2096895
VirtualMemory page size: 4096 log2_page_size: 12

CPU 0 runs /datasets/cs240c-wi22-a00-public/data/Assignment2/omnetpp_17B.trace.xz
CPU 0 Bimodal branch predictor
Basic BTB sets: 1024 ways: 8 indirect buffer size: 4096 RAS size: 64
Initialize Hawkeye state
Heartbeat CPU 0 instructions: 10000002 cycles: 2500125 heartbeat IPC: 3.9998 cumulative IPC: 3.9998 (Simulation time: 0 hr 0 min 23 sec) 

Warmup complete CPU 0 instructions: 10000002 cycles: 2500125 (Simulation time: 0 hr 0 min 23 sec) 

Heartbeat CPU 0 instructions: 20000003 cycles: 8440438 heartbeat IPC: 1.68341 cumulative IPC: 1.68341 (Simulation time: 0 hr 0 min 51 sec) 
Heartbeat CPU 0 instructions: 30000000 cycles: 17742135 heartbeat IPC: 1.07507 cumulative IPC: 1.31216 (Simulation time: 0 hr 1 min 40 sec) 
Heartbeat CPU 0 instructions: 40000001 cycles: 27585957 heartbeat IPC: 1.01587 cumulative IPC: 1.19589 (Simulation time: 0 hr 2 min 33 sec) 
Heartbeat CPU 0 instructions: 50000001 cycles: 34458667 heartbeat IPC: 1.45503 cumulative IPC: 1.25162 (Simulation time: 0 hr 3 min 7 sec) 
Heartbeat CPU 0 instructions: 60000001 cycles: 41899420 heartbeat IPC: 1.34395 cumulative IPC: 1.26906 (Simulation time: 0 hr 3 min 44 sec) 
Heartbeat CPU 0 instructions: 70000000 cycles: 51362784 heartbeat IPC: 1.05671 cumulative IPC: 1.22793 (Simulation time: 0 hr 4 min 34 sec) 
Heartbeat CPU 0 instructions: 80000002 cycles: 60893131 heartbeat IPC: 1.04928 cumulative IPC: 1.19877 (Simulation time: 0 hr 5 min 24 sec) 
Heartbeat CPU 0 instructions: 90000003 cycles: 70324198 heartbeat IPC: 1.06033 cumulative IPC: 1.17952 (Simulation time: 0 hr 6 min 14 sec) 
Heartbeat CPU 0 instructions: 100000002 cycles: 75668823 heartbeat IPC: 1.87104 cumulative IPC: 1.23003 (Simulation time: 0 hr 6 min 38 sec) 
Heartbeat CPU 0 instructions: 110000001 cycles: 84945599 heartbeat IPC: 1.07796 cumulative IPC: 1.21292 (Simulation time: 0 hr 7 min 27 sec) 
Finished CPU 0 instructions: 100000004 cycles: 82445481 cumulative IPC: 1.21292 (Simulation time: 0 hr 7 min 27 sec) 

ChampSim completed all CPUs

Region of Interest Statistics

CPU 0 cumulative IPC: 1.21292 instructions: 100000004 cycles: 82445481
cpu0_DTLB TOTAL     ACCESS:   10199667  HIT:    9134865  MISS:    1064802
cpu0_DTLB LOAD      ACCESS:    8262197  HIT:    7199275  MISS:    1062922
cpu0_DTLB RFO       ACCESS:    1937470  HIT:    1935590  MISS:       1880
cpu0_DTLB PREFETCH  ACCESS:          0  HIT:          0  MISS:          0
cpu0_DTLB WRITEBACK ACCESS:          0  HIT:          0  MISS:          0
cpu0_DTLB TRANSLATION ACCESS:          0  HIT:          0  MISS:          0
cpu0_DTLB PREFETCH  REQUESTED:          0  ISSUED:          0  USEFUL:          0  USELESS:          0
cpu0_DTLB AVERAGE MISS LATENCY: 21.1024 cycles
cpu0_ITLB TOTAL     ACCESS:    8332817  HIT:    8330760  MISS:       2057
cpu0_ITLB LOAD      ACCESS:    8332817  HIT:    8330760  MISS:       2057
cpu0_ITLB RFO       ACCESS:          0  HIT:          0  MISS:          0
cpu0_ITLB PREFETCH  ACCESS:          0  HIT:          0  MISS:          0
cpu0_ITLB WRITEBACK ACCESS:          0  HIT:          0  MISS:          0
cpu0_ITLB TRANSLATION ACCESS:          0  HIT:          0  MISS:          0
cpu0_ITLB PREFETCH  REQUESTED:          0  ISSUED:          0  USEFUL:          0  USELESS:          0
cpu0_ITLB AVERAGE MISS LATENCY: 15.6315 cycles
cpu0_L1I TOTAL     ACCESS:    1054824  HIT:    1050494  MISS:       4330
cpu0_L1I LOAD      ACCESS:    1054824  HIT:    1050494  MISS:       4330
cpu0_L1I RFO       ACCESS:          0  HIT:          0  MISS:          0
cpu0_L1I PREFETCH  ACCESS:          0  HIT:          0  MISS:          0
cpu0_L1I WRITEBACK ACCESS:          0  HIT:          0  MISS:          0
cpu0_L1I TRANSLATION ACCESS:          0  HIT:          0  MISS:          0
cpu0_L1I PREFETCH  REQUESTED:          0  ISSUED:          0  USEFUL:          0  USELESS:          0
cpu0_L1I AVERAGE MISS LATENCY: 91.7261 cycles
cpu0_STLB TOTAL     ACCESS:    1066859  HIT:      12744  MISS:    1054115
cpu0_STLB LOAD      ACCESS:    1064979  HIT:      11380  MISS:    1053599
cpu0_STLB RFO       ACCESS:       1880  HIT:       1364  MISS:        516
cpu0_STLB PREFETCH  ACCESS:          0  HIT:          0  MISS:          0
cpu0_STLB WRITEBACK ACCESS:          0  HIT:          0  MISS:          0
cpu0_STLB TRANSLATION ACCESS:          0  HIT:          0  MISS:          0
cpu0_STLB PREFETCH  REQUESTED:          0  ISSUED:          0  USEFUL:          0  USELESS:          0
cpu0_STLB AVERAGE MISS LATENCY: 11.7699 cycles
cpu0_L1D TOTAL     ACCESS:   10192153  HIT:    8437707  MISS:    1754446
cpu0_L1D LOAD      ACCESS:    6379943  HIT:    4639654  MISS:    1740289
cpu0_L1D RFO       ACCESS:    3337693  HIT:    3324635  MISS:      13058
cpu0_L1D PREFETCH  ACCESS:          0  HIT:          0  MISS:          0
cpu0_L1D WRITEBACK ACCESS:          0  HIT:          0  MISS:          0
cpu0_L1D TRANSLATION ACCESS:     474517  HIT:     473418  MISS:       1099
cpu0_L1D PREFETCH  REQUESTED:          0  ISSUED:          0  USEFUL:          0  USELESS:          0
cpu0_L1D AVERAGE MISS LATENCY: 207.376 cycles
cpu0_L2C TOTAL     ACCESS:    1775591  HIT:      23314  MISS:    1752277
cpu0_L2C LOAD      ACCESS:    1744619  HIT:       5922  MISS:    1738697
cpu0_L2C RFO       ACCESS:      13058  HIT:        137  MISS:      12921
cpu0_L2C PREFETCH  ACCESS:          0  HIT:          0  MISS:          0
cpu0_L2C WRITEBACK ACCESS:      16815  HIT:      16815  MISS:          0
cpu0_L2C TRANSLATION ACCESS:       1099  HIT:        440  MISS:        659
cpu0_L2C PREFETCH  REQUESTED:          0  ISSUED:          0  USEFUL:          0  USELESS:          0
cpu0_L2C AVERAGE MISS LATENCY: 196.287 cycles
LLC TOTAL     ACCESS:    1768988  HIT:    1053224  MISS:     715764
LLC LOAD      ACCESS:    1738697  HIT:    1041881  MISS:     696816
LLC RFO       ACCESS:      12921  HIT:       1738  MISS:      11183
LLC PREFETCH  ACCESS:          0  HIT:          0  MISS:          0
LLC WRITEBACK ACCESS:      16711  HIT:       9298  MISS:       7413
LLC TRANSLATION ACCESS:        659  HIT:        307  MISS:        352
LLC PREFETCH  REQUESTED:          0  ISSUED:          0  USEFUL:          0  USELESS:          0
LLC AVERAGE MISS LATENCY: 429.108 cycles
OPTgen accesses: 29542
OPTgen hits: 24265
OPTgen hit rate: 82.1373



DRAM Statistics
 CHANNEL 0
 RQ ROW_BUFFER_HIT:      14609  ROW_BUFFER_MISS:     693479
 DBUS AVG_CONGESTED_CYCLE:    3.98063
 WQ ROW_BUFFER_HIT:       1344  ROW_BUFFER_MISS:      11359  FULL:          0


CPU 0 Branch Prediction Accuracy: 97.6159% MPKI: 7.87238 Average ROB Occupancy at Mispredict: 63.3905
Branch type MPKI
BRANCH_DIRECT_JUMP: 0.00032
BRANCH_INDIRECT: 0.08474
BRANCH_CONDITIONAL: 7.75802
BRANCH_DIRECT_CALL: 0.00068
BRANCH_INDIRECT_CALL: 0.00292
BRANCH_RETURN: 0.0257

