
*** ChampSim Multicore Out-of-Order Simulator ***

Warmup Instructions: 10000000
Simulation Instructions: 100000000
Number of CPUs: 1
Off-chip DRAM Size: 4 GiB Channels: 1 Width: 64-bit Data Rate: 3200 MT/s

VirtualMemory physical capacity: 8588881920 num_ppages: 2096895
VirtualMemory page size: 4096 log2_page_size: 12

CPU 0 runs /datasets/cs240c-wi22-a00-public/data/Assignment2/GemsFDTD_716B.trace.xz
CPU 0 Bimodal branch predictor
Basic BTB sets: 1024 ways: 8 indirect buffer size: 4096 RAS size: 64
Initialize Hawkeye state
Heartbeat CPU 0 instructions: 10000004 cycles: 2536408 heartbeat IPC: 3.94258 cumulative IPC: 3.94258 (Simulation time: 0 hr 0 min 33 sec) 

Warmup complete CPU 0 instructions: 10000004 cycles: 2536408 (Simulation time: 0 hr 0 min 33 sec) 

Heartbeat CPU 0 instructions: 20000003 cycles: 24444773 heartbeat IPC: 0.456447 cumulative IPC: 0.456447 (Simulation time: 0 hr 3 min 7 sec) 
Heartbeat CPU 0 instructions: 30000002 cycles: 38117063 heartbeat IPC: 0.731406 cumulative IPC: 0.562103 (Simulation time: 0 hr 5 min 4 sec) 
Heartbeat CPU 0 instructions: 40000000 cycles: 49514902 heartbeat IPC: 0.877359 cumulative IPC: 0.63859 (Simulation time: 0 hr 6 min 49 sec) 
Heartbeat CPU 0 instructions: 50000002 cycles: 67507059 heartbeat IPC: 0.555798 cumulative IPC: 0.615663 (Simulation time: 0 hr 9 min 5 sec) 
Heartbeat CPU 0 instructions: 60000002 cycles: 83362538 heartbeat IPC: 0.630697 cumulative IPC: 0.618612 (Simulation time: 0 hr 11 min 10 sec) 
Heartbeat CPU 0 instructions: 70000004 cycles: 95573866 heartbeat IPC: 0.818912 cumulative IPC: 0.644902 (Simulation time: 0 hr 12 min 59 sec) 
Heartbeat CPU 0 instructions: 80000003 cycles: 109938663 heartbeat IPC: 0.696146 cumulative IPC: 0.651755 (Simulation time: 0 hr 14 min 58 sec) 
Heartbeat CPU 0 instructions: 90000001 cycles: 128309302 heartbeat IPC: 0.544347 cumulative IPC: 0.636067 (Simulation time: 0 hr 17 min 14 sec) 
Heartbeat CPU 0 instructions: 100000001 cycles: 141338617 heartbeat IPC: 0.7675 cumulative IPC: 0.648405 (Simulation time: 0 hr 19 min 4 sec) 
Heartbeat CPU 0 instructions: 110000004 cycles: 152979064 heartbeat IPC: 0.859074 cumulative IPC: 0.664705 (Simulation time: 0 hr 20 min 47 sec) 
Finished CPU 0 instructions: 100000000 cycles: 150442656 cumulative IPC: 0.664705 (Simulation time: 0 hr 20 min 47 sec) 

ChampSim completed all CPUs

Region of Interest Statistics

CPU 0 cumulative IPC: 0.664705 instructions: 100000000 cycles: 150442656
cpu0_DTLB TOTAL     ACCESS:   29890892  HIT:   26861125  MISS:    3029767
cpu0_DTLB LOAD      ACCESS:   20919405  HIT:   17890536  MISS:    3028869
cpu0_DTLB RFO       ACCESS:    8971487  HIT:    8970589  MISS:        898
cpu0_DTLB PREFETCH  ACCESS:          0  HIT:          0  MISS:          0
cpu0_DTLB WRITEBACK ACCESS:          0  HIT:          0  MISS:          0
cpu0_DTLB TRANSLATION ACCESS:          0  HIT:          0  MISS:          0
cpu0_DTLB PREFETCH  REQUESTED:          0  ISSUED:          0  USEFUL:          0  USELESS:          0
cpu0_DTLB AVERAGE MISS LATENCY: 13.8572 cycles
cpu0_ITLB TOTAL     ACCESS:    1847850  HIT:    1847848  MISS:          2
cpu0_ITLB LOAD      ACCESS:    1847850  HIT:    1847848  MISS:          2
cpu0_ITLB RFO       ACCESS:          0  HIT:          0  MISS:          0
cpu0_ITLB PREFETCH  ACCESS:          0  HIT:          0  MISS:          0
cpu0_ITLB WRITEBACK ACCESS:          0  HIT:          0  MISS:          0
cpu0_ITLB TRANSLATION ACCESS:          0  HIT:          0  MISS:          0
cpu0_ITLB PREFETCH  REQUESTED:          0  ISSUED:          0  USEFUL:          0  USELESS:          0
cpu0_ITLB AVERAGE MISS LATENCY: 470.5 cycles
cpu0_L1I TOTAL     ACCESS:    7857310  HIT:    7857188  MISS:        122
cpu0_L1I LOAD      ACCESS:    7857310  HIT:    7857188  MISS:        122
cpu0_L1I RFO       ACCESS:          0  HIT:          0  MISS:          0
cpu0_L1I PREFETCH  ACCESS:          0  HIT:          0  MISS:          0
cpu0_L1I WRITEBACK ACCESS:          0  HIT:          0  MISS:          0
cpu0_L1I TRANSLATION ACCESS:          0  HIT:          0  MISS:          0
cpu0_L1I PREFETCH  REQUESTED:          0  ISSUED:          0  USEFUL:          0  USELESS:          0
cpu0_L1I AVERAGE MISS LATENCY: 268.885 cycles
cpu0_STLB TOTAL     ACCESS:    3029769  HIT:    2757332  MISS:     272437
cpu0_STLB LOAD      ACCESS:    3028871  HIT:    2756434  MISS:     272437
cpu0_STLB RFO       ACCESS:        898  HIT:        898  MISS:          0
cpu0_STLB PREFETCH  ACCESS:          0  HIT:          0  MISS:          0
cpu0_STLB WRITEBACK ACCESS:          0  HIT:          0  MISS:          0
cpu0_STLB TRANSLATION ACCESS:          0  HIT:          0  MISS:          0
cpu0_STLB PREFETCH  REQUESTED:          0  ISSUED:          0  USEFUL:          0  USELESS:          0
cpu0_STLB AVERAGE MISS LATENCY: 51.6319 cycles
cpu0_L1D TOTAL     ACCESS:   34794834  HIT:   26552024  MISS:    8242810
cpu0_L1D LOAD      ACCESS:   22662569  HIT:   14443368  MISS:    8219201
cpu0_L1D RFO       ACCESS:   11865176  HIT:   11865170  MISS:          6
cpu0_L1D PREFETCH  ACCESS:          0  HIT:          0  MISS:          0
cpu0_L1D WRITEBACK ACCESS:          0  HIT:          0  MISS:          0
cpu0_L1D TRANSLATION ACCESS:     267089  HIT:     243486  MISS:      23603
cpu0_L1D PREFETCH  REQUESTED:          0  ISSUED:          0  USEFUL:          0  USELESS:          0
cpu0_L1D AVERAGE MISS LATENCY: 68.5387 cycles
cpu0_L2C TOTAL     ACCESS:    9425516  HIT:    7964130  MISS:    1461386
cpu0_L2C LOAD      ACCESS:    8219323  HIT:    6758562  MISS:    1460761
cpu0_L2C RFO       ACCESS:          6  HIT:          6  MISS:          0
cpu0_L2C PREFETCH  ACCESS:          0  HIT:          0  MISS:          0
cpu0_L2C WRITEBACK ACCESS:    1182584  HIT:    1182547  MISS:         37
cpu0_L2C TRANSLATION ACCESS:      23603  HIT:      23015  MISS:        588
cpu0_L2C PREFETCH  REQUESTED:          0  ISSUED:          0  USEFUL:          0  USELESS:          0
cpu0_L2C AVERAGE MISS LATENCY: 322.603 cycles
LLC TOTAL     ACCESS:    1476756  HIT:      53984  MISS:    1422772
LLC LOAD      ACCESS:    1460750  HIT:      40918  MISS:    1419832
LLC RFO       ACCESS:          0  HIT:          0  MISS:          0
LLC PREFETCH  ACCESS:          0  HIT:          0  MISS:          0
LLC WRITEBACK ACCESS:      15418  HIT:      12845  MISS:       2573
LLC TRANSLATION ACCESS:        588  HIT:        221  MISS:        367
LLC PREFETCH  REQUESTED:          0  ISSUED:          0  USEFUL:          0  USELESS:          0
LLC AVERAGE MISS LATENCY: 309.789 cycles
OPTgen accesses: 24409
OPTgen hits: 1412
OPTgen hit rate: 5.78475



DRAM Statistics
 CHANNEL 0
 RQ ROW_BUFFER_HIT:         68  ROW_BUFFER_MISS:    1419988
 DBUS AVG_CONGESTED_CYCLE:    3.94768
 WQ ROW_BUFFER_HIT:       1035  ROW_BUFFER_MISS:       5632  FULL:          0


CPU 0 Branch Prediction Accuracy: 98.9038% MPKI: 0.06477 Average ROB Occupancy at Mispredict: 248.676
Branch type MPKI
BRANCH_DIRECT_JUMP: 0
BRANCH_INDIRECT: 0
BRANCH_CONDITIONAL: 0.06477
BRANCH_DIRECT_CALL: 0
BRANCH_INDIRECT_CALL: 0
BRANCH_RETURN: 0

