
*** ChampSim Multicore Out-of-Order Simulator ***

Warmup Instructions: 10000000
Simulation Instructions: 100000000
Number of CPUs: 1
Off-chip DRAM Size: 4 GiB Channels: 1 Width: 64-bit Data Rate: 3200 MT/s

VirtualMemory physical capacity: 8588881920 num_ppages: 2096895
VirtualMemory page size: 4096 log2_page_size: 12

CPU 0 runs /datasets/cs240c-wi22-a00-public/data/Assignment2/soplex_217B.trace.xz
CPU 0 Bimodal branch predictor
Basic BTB sets: 1024 ways: 8 indirect buffer size: 4096 RAS size: 64
Initialize Hawkeye state
Heartbeat CPU 0 instructions: 10000000 cycles: 2844438 heartbeat IPC: 3.51563 cumulative IPC: 3.51563 (Simulation time: 0 hr 0 min 36 sec) 

Warmup complete CPU 0 instructions: 10000004 cycles: 2844439 (Simulation time: 0 hr 0 min 36 sec) 

Heartbeat CPU 0 instructions: 20000000 cycles: 34284529 heartbeat IPC: 0.318065 cumulative IPC: 0.318065 (Simulation time: 0 hr 2 min 21 sec) 
Heartbeat CPU 0 instructions: 30000004 cycles: 64075933 heartbeat IPC: 0.335667 cumulative IPC: 0.326629 (Simulation time: 0 hr 4 min 14 sec) 
Heartbeat CPU 0 instructions: 40000003 cycles: 95162710 heartbeat IPC: 0.32168 cumulative IPC: 0.324963 (Simulation time: 0 hr 6 min 3 sec) 
Heartbeat CPU 0 instructions: 50000000 cycles: 123992886 heartbeat IPC: 0.346859 cumulative IPC: 0.330173 (Simulation time: 0 hr 7 min 49 sec) 
Heartbeat CPU 0 instructions: 60000002 cycles: 154954017 heartbeat IPC: 0.322986 cumulative IPC: 0.32871 (Simulation time: 0 hr 9 min 42 sec) 
Heartbeat CPU 0 instructions: 70000000 cycles: 199355025 heartbeat IPC: 0.22522 cumulative IPC: 0.305327 (Simulation time: 0 hr 12 min 17 sec) 
Heartbeat CPU 0 instructions: 80000000 cycles: 231754736 heartbeat IPC: 0.308645 cumulative IPC: 0.305797 (Simulation time: 0 hr 13 min 57 sec) 
Heartbeat CPU 0 instructions: 90000002 cycles: 259919619 heartbeat IPC: 0.355052 cumulative IPC: 0.311193 (Simulation time: 0 hr 15 min 46 sec) 
Heartbeat CPU 0 instructions: 100000001 cycles: 292068396 heartbeat IPC: 0.311054 cumulative IPC: 0.311178 (Simulation time: 0 hr 17 min 44 sec) 
Heartbeat CPU 0 instructions: 110000000 cycles: 320553175 heartbeat IPC: 0.351065 cumulative IPC: 0.314754 (Simulation time: 0 hr 19 min 17 sec) 
Finished CPU 0 instructions: 100000000 cycles: 317708738 cumulative IPC: 0.314754 (Simulation time: 0 hr 19 min 17 sec) 

ChampSim completed all CPUs

Region of Interest Statistics

CPU 0 cumulative IPC: 0.314754 instructions: 100000000 cycles: 317708738
cpu0_DTLB TOTAL     ACCESS:   21864454  HIT:   20998814  MISS:     865640
cpu0_DTLB LOAD      ACCESS:   16698875  HIT:   16015239  MISS:     683636
cpu0_DTLB RFO       ACCESS:    5165579  HIT:    4983575  MISS:     182004
cpu0_DTLB PREFETCH  ACCESS:          0  HIT:          0  MISS:          0
cpu0_DTLB WRITEBACK ACCESS:          0  HIT:          0  MISS:          0
cpu0_DTLB TRANSLATION ACCESS:          0  HIT:          0  MISS:          0
cpu0_DTLB PREFETCH  REQUESTED:          0  ISSUED:          0  USEFUL:          0  USELESS:          0
cpu0_DTLB AVERAGE MISS LATENCY: 15.0083 cycles
cpu0_ITLB TOTAL     ACCESS:    8508998  HIT:    8508980  MISS:         18
cpu0_ITLB LOAD      ACCESS:    8508998  HIT:    8508980  MISS:         18
cpu0_ITLB RFO       ACCESS:          0  HIT:          0  MISS:          0
cpu0_ITLB PREFETCH  ACCESS:          0  HIT:          0  MISS:          0
cpu0_ITLB WRITEBACK ACCESS:          0  HIT:          0  MISS:          0
cpu0_ITLB TRANSLATION ACCESS:          0  HIT:          0  MISS:          0
cpu0_ITLB PREFETCH  REQUESTED:          0  ISSUED:          0  USEFUL:          0  USELESS:          0
cpu0_ITLB AVERAGE MISS LATENCY: 508.722 cycles
cpu0_L1I TOTAL     ACCESS:     356125  HIT:     355472  MISS:        653
cpu0_L1I LOAD      ACCESS:     356125  HIT:     355472  MISS:        653
cpu0_L1I RFO       ACCESS:          0  HIT:          0  MISS:          0
cpu0_L1I PREFETCH  ACCESS:          0  HIT:          0  MISS:          0
cpu0_L1I WRITEBACK ACCESS:          0  HIT:          0  MISS:          0
cpu0_L1I TRANSLATION ACCESS:          0  HIT:          0  MISS:          0
cpu0_L1I PREFETCH  REQUESTED:          0  ISSUED:          0  USEFUL:          0  USELESS:          0
cpu0_L1I AVERAGE MISS LATENCY: 300.801 cycles
cpu0_STLB TOTAL     ACCESS:     865658  HIT:     742144  MISS:     123514
cpu0_STLB LOAD      ACCESS:     683654  HIT:     569490  MISS:     114164
cpu0_STLB RFO       ACCESS:     182004  HIT:     172654  MISS:       9350
cpu0_STLB PREFETCH  ACCESS:          0  HIT:          0  MISS:          0
cpu0_STLB WRITEBACK ACCESS:          0  HIT:          0  MISS:          0
cpu0_STLB TRANSLATION ACCESS:          0  HIT:          0  MISS:          0
cpu0_STLB PREFETCH  REQUESTED:          0  ISSUED:          0  USEFUL:          0  USELESS:          0
cpu0_STLB AVERAGE MISS LATENCY: 41.0108 cycles
cpu0_L1D TOTAL     ACCESS:   18123133  HIT:   12299115  MISS:    5824018
cpu0_L1D LOAD      ACCESS:   12236177  HIT:    7241821  MISS:    4994356
cpu0_L1D RFO       ACCESS:    5767049  HIT:    4942413  MISS:     824636
cpu0_L1D PREFETCH  ACCESS:          0  HIT:          0  MISS:          0
cpu0_L1D WRITEBACK ACCESS:          0  HIT:          0  MISS:          0
cpu0_L1D TRANSLATION ACCESS:     119907  HIT:     114881  MISS:       5026
cpu0_L1D PREFETCH  REQUESTED:          0  ISSUED:          0  USEFUL:          0  USELESS:          0
cpu0_L1D AVERAGE MISS LATENCY: 196.861 cycles
cpu0_L2C TOTAL     ACCESS:    8411855  HIT:    3954633  MISS:    4457222
cpu0_L2C LOAD      ACCESS:    4994438  HIT:    1232175  MISS:    3762263
cpu0_L2C RFO       ACCESS:     824575  HIT:     130470  MISS:     694105
cpu0_L2C PREFETCH  ACCESS:          0  HIT:          0  MISS:          0
cpu0_L2C WRITEBACK ACCESS:    2587816  HIT:    2587713  MISS:        103
cpu0_L2C TRANSLATION ACCESS:       5026  HIT:       4275  MISS:        751
cpu0_L2C PREFETCH  REQUESTED:          0  ISSUED:          0  USEFUL:          0  USELESS:          0
cpu0_L2C AVERAGE MISS LATENCY: 242.661 cycles
LLC TOTAL     ACCESS:    6308058  HIT:    3317570  MISS:    2990488
LLC LOAD      ACCESS:    3762250  HIT:    1511705  MISS:    2250545
LLC RFO       ACCESS:     694103  HIT:     245197  MISS:     448906
LLC PREFETCH  ACCESS:          0  HIT:          0  MISS:          0
LLC WRITEBACK ACCESS:    1850954  HIT:    1560275  MISS:     290679
LLC TRANSLATION ACCESS:        751  HIT:        393  MISS:        358
LLC PREFETCH  REQUESTED:          0  ISSUED:          0  USEFUL:          0  USELESS:          0
LLC AVERAGE MISS LATENCY: 330.214 cycles
OPTgen accesses: 77567
OPTgen hits: 37422
OPTgen hit rate: 48.2447



DRAM Statistics
 CHANNEL 0
 RQ ROW_BUFFER_HIT:     277869  ROW_BUFFER_MISS:    2418819
 DBUS AVG_CONGESTED_CYCLE:    3.94991
 WQ ROW_BUFFER_HIT:      40145  ROW_BUFFER_MISS:     890267  FULL:     209094


CPU 0 Branch Prediction Accuracy: 93.2069% MPKI: 14.28 Average ROB Occupancy at Mispredict: 48.9546
Branch type MPKI
BRANCH_DIRECT_JUMP: 0.00099
BRANCH_INDIRECT: 0.00023
BRANCH_CONDITIONAL: 14.2767
BRANCH_DIRECT_CALL: 0.00062
BRANCH_INDIRECT_CALL: 0.00054
BRANCH_RETURN: 0.00093

