
*** ChampSim Multicore Out-of-Order Simulator ***

Warmup Instructions: 10000000
Simulation Instructions: 100000000
Number of CPUs: 1
Off-chip DRAM Size: 4 GiB Channels: 1 Width: 64-bit Data Rate: 3200 MT/s

VirtualMemory physical capacity: 8588881920 num_ppages: 2096895
VirtualMemory page size: 4096 log2_page_size: 12

CPU 0 runs /datasets/cs240c-wi22-a00-public/data/Assignment2/GemsFDTD_109B.trace.xz
CPU 0 Bimodal branch predictor
Basic BTB sets: 1024 ways: 8 indirect buffer size: 4096 RAS size: 64
Initialize Hawkeye state
Heartbeat CPU 0 instructions: 10000004 cycles: 4294006 heartbeat IPC: 2.32883 cumulative IPC: 2.32883 (Simulation time: 0 hr 0 min 57 sec) 

Warmup complete CPU 0 instructions: 10000004 cycles: 4294006 (Simulation time: 0 hr 0 min 57 sec) 

Heartbeat CPU 0 instructions: 20000000 cycles: 35068246 heartbeat IPC: 0.324947 cumulative IPC: 0.324947 (Simulation time: 0 hr 4 min 14 sec) 
Heartbeat CPU 0 instructions: 30000004 cycles: 56719053 heartbeat IPC: 0.461877 cumulative IPC: 0.381497 (Simulation time: 0 hr 6 min 18 sec) 
Heartbeat CPU 0 instructions: 40000004 cycles: 62920666 heartbeat IPC: 1.61248 cumulative IPC: 0.511713 (Simulation time: 0 hr 7 min 6 sec) 
Heartbeat CPU 0 instructions: 50000002 cycles: 83759246 heartbeat IPC: 0.479879 cumulative IPC: 0.503365 (Simulation time: 0 hr 9 min 4 sec) 
Heartbeat CPU 0 instructions: 60000000 cycles: 123858311 heartbeat IPC: 0.249382 cumulative IPC: 0.418185 (Simulation time: 0 hr 12 min 53 sec) 
Heartbeat CPU 0 instructions: 70000001 cycles: 163703041 heartbeat IPC: 0.250974 cumulative IPC: 0.37639 (Simulation time: 0 hr 16 min 42 sec) 
Heartbeat CPU 0 instructions: 80000004 cycles: 203299617 heartbeat IPC: 0.252547 cumulative IPC: 0.351749 (Simulation time: 0 hr 20 min 26 sec) 
Heartbeat CPU 0 instructions: 90000003 cycles: 243012585 heartbeat IPC: 0.251807 cumulative IPC: 0.335123 (Simulation time: 0 hr 24 min 11 sec) 
Heartbeat CPU 0 instructions: 100000003 cycles: 282756315 heartbeat IPC: 0.251612 cumulative IPC: 0.323204 (Simulation time: 0 hr 27 min 57 sec) 
Heartbeat CPU 0 instructions: 110000004 cycles: 322484985 heartbeat IPC: 0.251707 cumulative IPC: 0.314277 (Simulation time: 0 hr 31 min 40 sec) 
Finished CPU 0 instructions: 100000000 cycles: 318190979 cumulative IPC: 0.314277 (Simulation time: 0 hr 31 min 40 sec) 

ChampSim completed all CPUs

Region of Interest Statistics

CPU 0 cumulative IPC: 0.314277 instructions: 100000000 cycles: 318190979
cpu0_DTLB TOTAL     ACCESS:   26449717  HIT:   26250288  MISS:     199429
cpu0_DTLB LOAD      ACCESS:   21018844  HIT:   20821419  MISS:     197425
cpu0_DTLB RFO       ACCESS:    5430873  HIT:    5428869  MISS:       2004
cpu0_DTLB PREFETCH  ACCESS:          0  HIT:          0  MISS:          0
cpu0_DTLB WRITEBACK ACCESS:          0  HIT:          0  MISS:          0
cpu0_DTLB TRANSLATION ACCESS:          0  HIT:          0  MISS:          0
cpu0_DTLB PREFETCH  REQUESTED:          0  ISSUED:          0  USEFUL:          0  USELESS:          0
cpu0_DTLB AVERAGE MISS LATENCY: 430.263 cycles
cpu0_ITLB TOTAL     ACCESS:    2022492  HIT:    2022474  MISS:         18
cpu0_ITLB LOAD      ACCESS:    2022492  HIT:    2022474  MISS:         18
cpu0_ITLB RFO       ACCESS:          0  HIT:          0  MISS:          0
cpu0_ITLB PREFETCH  ACCESS:          0  HIT:          0  MISS:          0
cpu0_ITLB WRITEBACK ACCESS:          0  HIT:          0  MISS:          0
cpu0_ITLB TRANSLATION ACCESS:          0  HIT:          0  MISS:          0
cpu0_ITLB PREFETCH  REQUESTED:          0  ISSUED:          0  USEFUL:          0  USELESS:          0
cpu0_ITLB AVERAGE MISS LATENCY: 231.278 cycles
cpu0_L1I TOTAL     ACCESS:    1722930  HIT:    1722500  MISS:        430
cpu0_L1I LOAD      ACCESS:    1722930  HIT:    1722500  MISS:        430
cpu0_L1I RFO       ACCESS:          0  HIT:          0  MISS:          0
cpu0_L1I PREFETCH  ACCESS:          0  HIT:          0  MISS:          0
cpu0_L1I WRITEBACK ACCESS:          0  HIT:          0  MISS:          0
cpu0_L1I TRANSLATION ACCESS:          0  HIT:          0  MISS:          0
cpu0_L1I PREFETCH  REQUESTED:          0  ISSUED:          0  USEFUL:          0  USELESS:          0
cpu0_L1I AVERAGE MISS LATENCY: 352.942 cycles
cpu0_STLB TOTAL     ACCESS:     199447  HIT:      33986  MISS:     165461
cpu0_STLB LOAD      ACCESS:     197443  HIT:      32676  MISS:     164767
cpu0_STLB RFO       ACCESS:       2004  HIT:       1310  MISS:        694
cpu0_STLB PREFETCH  ACCESS:          0  HIT:          0  MISS:          0
cpu0_STLB WRITEBACK ACCESS:          0  HIT:          0  MISS:          0
cpu0_STLB TRANSLATION ACCESS:          0  HIT:          0  MISS:          0
cpu0_STLB PREFETCH  REQUESTED:          0  ISSUED:          0  USEFUL:          0  USELESS:          0
cpu0_STLB AVERAGE MISS LATENCY: 507.652 cycles
cpu0_L1D TOTAL     ACCESS:   22885248  HIT:   19655043  MISS:    3230205
cpu0_L1D LOAD      ACCESS:   13785685  HIT:   10685779  MISS:    3099906
cpu0_L1D RFO       ACCESS:    9009100  HIT:    8881488  MISS:     127612
cpu0_L1D PREFETCH  ACCESS:          0  HIT:          0  MISS:          0
cpu0_L1D WRITEBACK ACCESS:          0  HIT:          0  MISS:          0
cpu0_L1D TRANSLATION ACCESS:      90463  HIT:      87776  MISS:       2687
cpu0_L1D PREFETCH  REQUESTED:          0  ISSUED:          0  USEFUL:          0  USELESS:          0
cpu0_L1D AVERAGE MISS LATENCY: 719.266 cycles
cpu0_L2C TOTAL     ACCESS:    4595468  HIT:    1423528  MISS:    3171940
cpu0_L2C LOAD      ACCESS:    3100336  HIT:      41203  MISS:    3059133
cpu0_L2C RFO       ACCESS:     127612  HIT:      15099  MISS:     112513
cpu0_L2C PREFETCH  ACCESS:          0  HIT:          0  MISS:          0
cpu0_L2C WRITEBACK ACCESS:    1364833  HIT:    1364736  MISS:         97
cpu0_L2C TRANSLATION ACCESS:       2687  HIT:       2490  MISS:        197
cpu0_L2C PREFETCH  REQUESTED:          0  ISSUED:          0  USEFUL:          0  USELESS:          0
cpu0_L2C AVERAGE MISS LATENCY: 721.307 cycles
LLC TOTAL     ACCESS:    4523120  HIT:    1065882  MISS:    3457238
LLC LOAD      ACCESS:    3059126  HIT:     705750  MISS:    2353376
LLC RFO       ACCESS:     112513  HIT:      93597  MISS:      18916
LLC PREFETCH  ACCESS:          0  HIT:          0  MISS:          0
LLC WRITEBACK ACCESS:    1351284  HIT:     266436  MISS:    1084848
LLC TRANSLATION ACCESS:        197  HIT:         99  MISS:         98
LLC PREFETCH  REQUESTED:          0  ISSUED:          0  USEFUL:          0  USELESS:          0
LLC AVERAGE MISS LATENCY: 642.506 cycles
OPTgen accesses: 53485
OPTgen hits: 13958
OPTgen hit rate: 26.097



DRAM Statistics
 CHANNEL 0
 RQ ROW_BUFFER_HIT:      45533  ROW_BUFFER_MISS:    2326765
 DBUS AVG_CONGESTED_CYCLE:    3.99629
 WQ ROW_BUFFER_HIT:      22085  ROW_BUFFER_MISS:    1242323  FULL:      44395


CPU 0 Branch Prediction Accuracy: 98.929% MPKI: 0.55515 Average ROB Occupancy at Mispredict: 266.172
Branch type MPKI
BRANCH_DIRECT_JUMP: 0.00045
BRANCH_INDIRECT: 1e-05
BRANCH_CONDITIONAL: 0.5534
BRANCH_DIRECT_CALL: 0.00065
BRANCH_INDIRECT_CALL: 0
BRANCH_RETURN: 0.00064

