
*** ChampSim Multicore Out-of-Order Simulator ***

Warmup Instructions: 10000000
Simulation Instructions: 100000000
Number of CPUs: 1
Off-chip DRAM Size: 4 GiB Channels: 1 Width: 64-bit Data Rate: 3200 MT/s

VirtualMemory physical capacity: 8588881920 num_ppages: 2096895
VirtualMemory page size: 4096 log2_page_size: 12

CPU 0 runs /datasets/cs240c-wi22-a00-public/data/Assignment2/cactusADM_1039B.trace.xz
CPU 0 Bimodal branch predictor
Basic BTB sets: 1024 ways: 8 indirect buffer size: 4096 RAS size: 64
Initialize Hawkeye state
Heartbeat CPU 0 instructions: 10000004 cycles: 3647107 heartbeat IPC: 2.7419 cumulative IPC: 2.7419 (Simulation time: 0 hr 0 min 57 sec) 

Warmup complete CPU 0 instructions: 10000004 cycles: 3647107 (Simulation time: 0 hr 0 min 57 sec) 

Heartbeat CPU 0 instructions: 20000004 cycles: 13531920 heartbeat IPC: 1.01165 cumulative IPC: 1.01165 (Simulation time: 0 hr 2 min 43 sec) 
Heartbeat CPU 0 instructions: 30000000 cycles: 22815872 heartbeat IPC: 1.07713 cumulative IPC: 1.04336 (Simulation time: 0 hr 4 min 29 sec) 
Heartbeat CPU 0 instructions: 40000000 cycles: 31538432 heartbeat IPC: 1.14645 cumulative IPC: 1.0756 (Simulation time: 0 hr 6 min 8 sec) 
Heartbeat CPU 0 instructions: 50000004 cycles: 40211594 heartbeat IPC: 1.15298 cumulative IPC: 1.09396 (Simulation time: 0 hr 7 min 49 sec) 
Heartbeat CPU 0 instructions: 60000002 cycles: 46381136 heartbeat IPC: 1.62087 cumulative IPC: 1.17003 (Simulation time: 0 hr 9 min 16 sec) 
Heartbeat CPU 0 instructions: 70000003 cycles: 54926027 heartbeat IPC: 1.17029 cumulative IPC: 1.17007 (Simulation time: 0 hr 10 min 56 sec) 
Heartbeat CPU 0 instructions: 80000004 cycles: 63291234 heartbeat IPC: 1.19543 cumulative IPC: 1.17363 (Simulation time: 0 hr 12 min 39 sec) 
Heartbeat CPU 0 instructions: 90000004 cycles: 72041424 heartbeat IPC: 1.14283 cumulative IPC: 1.16969 (Simulation time: 0 hr 14 min 26 sec) 
Heartbeat CPU 0 instructions: 100000000 cycles: 78113793 heartbeat IPC: 1.6468 cumulative IPC: 1.20859 (Simulation time: 0 hr 15 min 55 sec) 
Heartbeat CPU 0 instructions: 110000003 cycles: 86506489 heartbeat IPC: 1.19151 cumulative IPC: 1.20686 (Simulation time: 0 hr 17 min 37 sec) 
Finished CPU 0 instructions: 100000004 cycles: 82859383 cumulative IPC: 1.20686 (Simulation time: 0 hr 17 min 37 sec) 

ChampSim completed all CPUs

Region of Interest Statistics

CPU 0 cumulative IPC: 1.20686 instructions: 100000004 cycles: 82859383
cpu0_DTLB TOTAL     ACCESS:   22856829  HIT:   20807289  MISS:    2049540
cpu0_DTLB LOAD      ACCESS:   18943046  HIT:   17509705  MISS:    1433341
cpu0_DTLB RFO       ACCESS:    3913783  HIT:    3297584  MISS:     616199
cpu0_DTLB PREFETCH  ACCESS:          0  HIT:          0  MISS:          0
cpu0_DTLB WRITEBACK ACCESS:          0  HIT:          0  MISS:          0
cpu0_DTLB TRANSLATION ACCESS:          0  HIT:          0  MISS:          0
cpu0_DTLB PREFETCH  REQUESTED:          0  ISSUED:          0  USEFUL:          0  USELESS:          0
cpu0_DTLB AVERAGE MISS LATENCY: 15.8568 cycles
cpu0_ITLB TOTAL     ACCESS:    1451322  HIT:    1451322  MISS:          0
cpu0_ITLB LOAD      ACCESS:    1451322  HIT:    1451322  MISS:          0
cpu0_ITLB RFO       ACCESS:          0  HIT:          0  MISS:          0
cpu0_ITLB PREFETCH  ACCESS:          0  HIT:          0  MISS:          0
cpu0_ITLB WRITEBACK ACCESS:          0  HIT:          0  MISS:          0
cpu0_ITLB TRANSLATION ACCESS:          0  HIT:          0  MISS:          0
cpu0_ITLB PREFETCH  REQUESTED:          0  ISSUED:          0  USEFUL:          0  USELESS:          0
cpu0_ITLB AVERAGE MISS LATENCY: -nan cycles
cpu0_L1I TOTAL     ACCESS:    8116270  HIT:    8116267  MISS:          3
cpu0_L1I LOAD      ACCESS:    8116270  HIT:    8116267  MISS:          3
cpu0_L1I RFO       ACCESS:          0  HIT:          0  MISS:          0
cpu0_L1I PREFETCH  ACCESS:          0  HIT:          0  MISS:          0
cpu0_L1I WRITEBACK ACCESS:          0  HIT:          0  MISS:          0
cpu0_L1I TRANSLATION ACCESS:          0  HIT:          0  MISS:          0
cpu0_L1I PREFETCH  REQUESTED:          0  ISSUED:          0  USEFUL:          0  USELESS:          0
cpu0_L1I AVERAGE MISS LATENCY: 779.667 cycles
cpu0_STLB TOTAL     ACCESS:    2049540  HIT:    1128888  MISS:     920652
cpu0_STLB LOAD      ACCESS:    1433341  HIT:     835386  MISS:     597955
cpu0_STLB RFO       ACCESS:     616199  HIT:     293502  MISS:     322697
cpu0_STLB PREFETCH  ACCESS:          0  HIT:          0  MISS:          0
cpu0_STLB WRITEBACK ACCESS:          0  HIT:          0  MISS:          0
cpu0_STLB TRANSLATION ACCESS:          0  HIT:          0  MISS:          0
cpu0_STLB PREFETCH  REQUESTED:          0  ISSUED:          0  USEFUL:          0  USELESS:          0
cpu0_STLB AVERAGE MISS LATENCY: 15.1081 cycles
cpu0_L1D TOTAL     ACCESS:   37611044  HIT:   36287300  MISS:    1323744
cpu0_L1D LOAD      ACCESS:   25709261  HIT:   24656850  MISS:    1052411
cpu0_L1D RFO       ACCESS:   10981998  HIT:   10716627  MISS:     265371
cpu0_L1D PREFETCH  ACCESS:          0  HIT:          0  MISS:          0
cpu0_L1D WRITEBACK ACCESS:          0  HIT:          0  MISS:          0
cpu0_L1D TRANSLATION ACCESS:     919785  HIT:     913823  MISS:       5962
cpu0_L1D PREFETCH  REQUESTED:          0  ISSUED:          0  USEFUL:          0  USELESS:          0
cpu0_L1D AVERAGE MISS LATENCY: 282.354 cycles
cpu0_L2C TOTAL     ACCESS:    1593014  HIT:     694187  MISS:     898827
cpu0_L2C LOAD      ACCESS:    1052412  HIT:     419488  MISS:     632924
cpu0_L2C RFO       ACCESS:     265371  HIT:          0  MISS:     265371
cpu0_L2C PREFETCH  ACCESS:          0  HIT:          0  MISS:          0
cpu0_L2C WRITEBACK ACCESS:     269269  HIT:     269056  MISS:        213
cpu0_L2C TRANSLATION ACCESS:       5962  HIT:       5643  MISS:        319
cpu0_L2C PREFETCH  REQUESTED:          0  ISSUED:          0  USEFUL:          0  USELESS:          0
cpu0_L2C AVERAGE MISS LATENCY: 399.616 cycles
LLC TOTAL     ACCESS:    1165778  HIT:     343794  MISS:     821984
LLC LOAD      ACCESS:     632924  HIT:     152239  MISS:     480685
LLC RFO       ACCESS:     265371  HIT:      82263  MISS:     183108
LLC PREFETCH  ACCESS:          0  HIT:          0  MISS:          0
LLC WRITEBACK ACCESS:     267164  HIT:     109266  MISS:     157898
LLC TRANSLATION ACCESS:        319  HIT:         26  MISS:        293
LLC PREFETCH  REQUESTED:          0  ISSUED:          0  USEFUL:          0  USELESS:          0
LLC AVERAGE MISS LATENCY: 414.014 cycles
OPTgen accesses: 15019
OPTgen hits: 4769
OPTgen hit rate: 31.7531



DRAM Statistics
 CHANNEL 0
 RQ ROW_BUFFER_HIT:       6520  ROW_BUFFER_MISS:     657558
 DBUS AVG_CONGESTED_CYCLE:    3.97628
 WQ ROW_BUFFER_HIT:      20304  ROW_BUFFER_MISS:     217939  FULL:        420


CPU 0 Branch Prediction Accuracy: 97.7479% MPKI: 0.04701 Average ROB Occupancy at Mispredict: 283.883
Branch type MPKI
BRANCH_DIRECT_JUMP: 0
BRANCH_INDIRECT: 0
BRANCH_CONDITIONAL: 0.04701
BRANCH_DIRECT_CALL: 0
BRANCH_INDIRECT_CALL: 0
BRANCH_RETURN: 0

