
*** ChampSim Multicore Out-of-Order Simulator ***

Warmup Instructions: 10000000
Simulation Instructions: 100000000
Number of CPUs: 1
Off-chip DRAM Size: 4 GiB Channels: 1 Width: 64-bit Data Rate: 3200 MT/s

VirtualMemory physical capacity: 8588881920 num_ppages: 2096895
VirtualMemory page size: 4096 log2_page_size: 12

CPU 0 runs /datasets/cs240c-wi22-a00-public/data/Assignment2/astar_313B.trace.xz
CPU 0 Bimodal branch predictor
Basic BTB sets: 1024 ways: 8 indirect buffer size: 4096 RAS size: 64
Initialize Hawkeye state
Heartbeat CPU 0 instructions: 10000003 cycles: 3956411 heartbeat IPC: 2.52754 cumulative IPC: 2.52754 (Simulation time: 0 hr 0 min 59 sec) 

Warmup complete CPU 0 instructions: 10000003 cycles: 3956411 (Simulation time: 0 hr 0 min 59 sec) 

Heartbeat CPU 0 instructions: 20000004 cycles: 59783349 heartbeat IPC: 0.179125 cumulative IPC: 0.179125 (Simulation time: 0 hr 3 min 20 sec) 
Heartbeat CPU 0 instructions: 30000001 cycles: 121734673 heartbeat IPC: 0.161417 cumulative IPC: 0.169811 (Simulation time: 0 hr 6 min 37 sec) 
Heartbeat CPU 0 instructions: 40000000 cycles: 184761274 heartbeat IPC: 0.158663 cumulative IPC: 0.165925 (Simulation time: 0 hr 9 min 51 sec) 
Heartbeat CPU 0 instructions: 50000001 cycles: 240745794 heartbeat IPC: 0.178621 cumulative IPC: 0.168926 (Simulation time: 0 hr 12 min 9 sec) 
Heartbeat CPU 0 instructions: 60000000 cycles: 301027577 heartbeat IPC: 0.165888 cumulative IPC: 0.16831 (Simulation time: 0 hr 14 min 52 sec) 
Heartbeat CPU 0 instructions: 70000000 cycles: 360560030 heartbeat IPC: 0.167976 cumulative IPC: 0.168254 (Simulation time: 0 hr 17 min 37 sec) 
Heartbeat CPU 0 instructions: 80000000 cycles: 416565863 heartbeat IPC: 0.178553 cumulative IPC: 0.169652 (Simulation time: 0 hr 19 min 55 sec) 
Heartbeat CPU 0 instructions: 90000001 cycles: 475118593 heartbeat IPC: 0.170786 cumulative IPC: 0.169793 (Simulation time: 0 hr 22 min 19 sec) 
Heartbeat CPU 0 instructions: 100000000 cycles: 528186301 heartbeat IPC: 0.188438 cumulative IPC: 0.17168 (Simulation time: 0 hr 24 min 31 sec) 
Heartbeat CPU 0 instructions: 110000000 cycles: 586392429 heartbeat IPC: 0.171803 cumulative IPC: 0.171693 (Simulation time: 0 hr 27 min 11 sec) 
Finished CPU 0 instructions: 100000001 cycles: 582436019 cumulative IPC: 0.171693 (Simulation time: 0 hr 27 min 11 sec) 

ChampSim completed all CPUs

Region of Interest Statistics

CPU 0 cumulative IPC: 0.171693 instructions: 100000001 cycles: 582436019
cpu0_DTLB TOTAL     ACCESS:   34346541  HIT:   30527834  MISS:    3818707
cpu0_DTLB LOAD      ACCESS:   26404275  HIT:   23782027  MISS:    2622248
cpu0_DTLB RFO       ACCESS:    7942266  HIT:    6745807  MISS:    1196459
cpu0_DTLB PREFETCH  ACCESS:          0  HIT:          0  MISS:          0
cpu0_DTLB WRITEBACK ACCESS:          0  HIT:          0  MISS:          0
cpu0_DTLB TRANSLATION ACCESS:          0  HIT:          0  MISS:          0
cpu0_DTLB PREFETCH  REQUESTED:          0  ISSUED:          0  USEFUL:          0  USELESS:          0
cpu0_DTLB AVERAGE MISS LATENCY: 170.692 cycles
cpu0_ITLB TOTAL     ACCESS:   11440219  HIT:   11440219  MISS:          0
cpu0_ITLB LOAD      ACCESS:   11440219  HIT:   11440219  MISS:          0
cpu0_ITLB RFO       ACCESS:          0  HIT:          0  MISS:          0
cpu0_ITLB PREFETCH  ACCESS:          0  HIT:          0  MISS:          0
cpu0_ITLB WRITEBACK ACCESS:          0  HIT:          0  MISS:          0
cpu0_ITLB TRANSLATION ACCESS:          0  HIT:          0  MISS:          0
cpu0_ITLB PREFETCH  REQUESTED:          0  ISSUED:          0  USEFUL:          0  USELESS:          0
cpu0_ITLB AVERAGE MISS LATENCY: -nan cycles
cpu0_L1I TOTAL     ACCESS:        129  HIT:        126  MISS:          3
cpu0_L1I LOAD      ACCESS:        129  HIT:        126  MISS:          3
cpu0_L1I RFO       ACCESS:          0  HIT:          0  MISS:          0
cpu0_L1I PREFETCH  ACCESS:          0  HIT:          0  MISS:          0
cpu0_L1I WRITEBACK ACCESS:          0  HIT:          0  MISS:          0
cpu0_L1I TRANSLATION ACCESS:          0  HIT:          0  MISS:          0
cpu0_L1I PREFETCH  REQUESTED:          0  ISSUED:          0  USEFUL:          0  USELESS:          0
cpu0_L1I AVERAGE MISS LATENCY: 197 cycles
cpu0_STLB TOTAL     ACCESS:    3818707  HIT:    1896135  MISS:    1922572
cpu0_STLB LOAD      ACCESS:    2622248  HIT:    1784477  MISS:     837771
cpu0_STLB RFO       ACCESS:    1196459  HIT:     111658  MISS:    1084801
cpu0_STLB PREFETCH  ACCESS:          0  HIT:          0  MISS:          0
cpu0_STLB WRITEBACK ACCESS:          0  HIT:          0  MISS:          0
cpu0_STLB TRANSLATION ACCESS:          0  HIT:          0  MISS:          0
cpu0_STLB PREFETCH  REQUESTED:          0  ISSUED:          0  USEFUL:          0  USELESS:          0
cpu0_STLB AVERAGE MISS LATENCY: 320.973 cycles
cpu0_L1D TOTAL     ACCESS:   35960755  HIT:   30108009  MISS:    5852746
cpu0_L1D LOAD      ACCESS:   24414513  HIT:   20483544  MISS:    3930969
cpu0_L1D RFO       ACCESS:   10121050  HIT:    8210397  MISS:    1910653
cpu0_L1D PREFETCH  ACCESS:          0  HIT:          0  MISS:          0
cpu0_L1D WRITEBACK ACCESS:          0  HIT:          0  MISS:          0
cpu0_L1D TRANSLATION ACCESS:    1425192  HIT:    1414068  MISS:      11124
cpu0_L1D PREFETCH  REQUESTED:          0  ISSUED:          0  USEFUL:          0  USELESS:          0
cpu0_L1D AVERAGE MISS LATENCY: 394.311 cycles
cpu0_L2C TOTAL     ACCESS:    8697467  HIT:    4509811  MISS:    4187656
cpu0_L2C LOAD      ACCESS:    3930961  HIT:    1549544  MISS:    2381417
cpu0_L2C RFO       ACCESS:    1910653  HIT:     106289  MISS:    1804364
cpu0_L2C PREFETCH  ACCESS:          0  HIT:          0  MISS:          0
cpu0_L2C WRITEBACK ACCESS:    2844729  HIT:    2844561  MISS:        168
cpu0_L2C TRANSLATION ACCESS:      11124  HIT:       9417  MISS:       1707
cpu0_L2C PREFETCH  REQUESTED:          0  ISSUED:          0  USEFUL:          0  USELESS:          0
cpu0_L2C AVERAGE MISS LATENCY: 535.688 cycles
LLC TOTAL     ACCESS:    6918012  HIT:    2582413  MISS:    4335599
LLC LOAD      ACCESS:    2381417  HIT:     426540  MISS:    1954877
LLC RFO       ACCESS:    1804362  HIT:     671440  MISS:    1132922
LLC PREFETCH  ACCESS:          0  HIT:          0  MISS:          0
LLC WRITEBACK ACCESS:    2730526  HIT:    1483497  MISS:    1247029
LLC TRANSLATION ACCESS:       1707  HIT:        936  MISS:        771
LLC PREFETCH  REQUESTED:          0  ISSUED:          0  USEFUL:          0  USELESS:          0
LLC AVERAGE MISS LATENCY: 497.112 cycles
OPTgen accesses: 72586
OPTgen hits: 24828
OPTgen hit rate: 34.2049



DRAM Statistics
 CHANNEL 0
 RQ ROW_BUFFER_HIT:      24778  ROW_BUFFER_MISS:    3063131
 DBUS AVG_CONGESTED_CYCLE:    3.99885
 WQ ROW_BUFFER_HIT:     235169  ROW_BUFFER_MISS:    1500300  FULL:     213390


CPU 0 Branch Prediction Accuracy: 88.672% MPKI: 23.9003 Average ROB Occupancy at Mispredict: 22.8521
Branch type MPKI
BRANCH_DIRECT_JUMP: 1e-05
BRANCH_INDIRECT: 0
BRANCH_CONDITIONAL: 23.8999
BRANCH_DIRECT_CALL: 0
BRANCH_INDIRECT_CALL: 0.00038
BRANCH_RETURN: 0

