
*** ChampSim Multicore Out-of-Order Simulator ***

Warmup Instructions: 10000000
Simulation Instructions: 100000000
Number of CPUs: 1
Off-chip DRAM Size: 4 GiB Channels: 1 Width: 64-bit Data Rate: 3200 MT/s

VirtualMemory physical capacity: 8588881920 num_ppages: 2096895
VirtualMemory page size: 4096 log2_page_size: 12

CPU 0 runs /datasets/cs240c-wi22-a00-public/data/Assignment2/leslie3d_1116B.trace.xz
CPU 0 Bimodal branch predictor
Basic BTB sets: 1024 ways: 8 indirect buffer size: 4096 RAS size: 64
Initialize Hawkeye state
Heartbeat CPU 0 instructions: 10000000 cycles: 3692422 heartbeat IPC: 2.70825 cumulative IPC: 2.70825 (Simulation time: 0 hr 0 min 54 sec) 

Warmup complete CPU 0 instructions: 10000005 cycles: 3692423 (Simulation time: 0 hr 0 min 54 sec) 

Heartbeat CPU 0 instructions: 20000000 cycles: 12682438 heartbeat IPC: 1.11235 cumulative IPC: 1.11234 (Simulation time: 0 hr 2 min 28 sec) 
Heartbeat CPU 0 instructions: 30000004 cycles: 21759490 heartbeat IPC: 1.10168 cumulative IPC: 1.10699 (Simulation time: 0 hr 4 min 0 sec) 
Heartbeat CPU 0 instructions: 40000004 cycles: 33546079 heartbeat IPC: 0.848422 cumulative IPC: 1.0049 (Simulation time: 0 hr 5 min 37 sec) 
Heartbeat CPU 0 instructions: 50000000 cycles: 55357915 heartbeat IPC: 0.458467 cumulative IPC: 0.774211 (Simulation time: 0 hr 7 min 54 sec) 
Heartbeat CPU 0 instructions: 60000001 cycles: 109566478 heartbeat IPC: 0.184473 cumulative IPC: 0.472259 (Simulation time: 0 hr 12 min 32 sec) 
Heartbeat CPU 0 instructions: 70000000 cycles: 123489275 heartbeat IPC: 0.718246 cumulative IPC: 0.500848 (Simulation time: 0 hr 14 min 22 sec) 
Heartbeat CPU 0 instructions: 80000001 cycles: 136522070 heartbeat IPC: 0.767295 cumulative IPC: 0.526991 (Simulation time: 0 hr 16 min 10 sec) 
Heartbeat CPU 0 instructions: 90000004 cycles: 149758848 heartbeat IPC: 0.755471 cumulative IPC: 0.547696 (Simulation time: 0 hr 17 min 57 sec) 
Heartbeat CPU 0 instructions: 100000002 cycles: 163002992 heartbeat IPC: 0.755051 cumulative IPC: 0.564934 (Simulation time: 0 hr 19 min 43 sec) 
Heartbeat CPU 0 instructions: 110000001 cycles: 180292769 heartbeat IPC: 0.578376 cumulative IPC: 0.56625 (Simulation time: 0 hr 21 min 38 sec) 
Finished CPU 0 instructions: 100000000 cycles: 176600348 cumulative IPC: 0.56625 (Simulation time: 0 hr 21 min 38 sec) 

ChampSim completed all CPUs

Region of Interest Statistics

CPU 0 cumulative IPC: 0.56625 instructions: 100000000 cycles: 176600348
cpu0_DTLB TOTAL     ACCESS:   25741380  HIT:   25675672  MISS:      65708
cpu0_DTLB LOAD      ACCESS:   21123168  HIT:   21071516  MISS:      51652
cpu0_DTLB RFO       ACCESS:    4618212  HIT:    4604156  MISS:      14056
cpu0_DTLB PREFETCH  ACCESS:          0  HIT:          0  MISS:          0
cpu0_DTLB WRITEBACK ACCESS:          0  HIT:          0  MISS:          0
cpu0_DTLB TRANSLATION ACCESS:          0  HIT:          0  MISS:          0
cpu0_DTLB PREFETCH  REQUESTED:          0  ISSUED:          0  USEFUL:          0  USELESS:          0
cpu0_DTLB AVERAGE MISS LATENCY: 86.8785 cycles
cpu0_ITLB TOTAL     ACCESS:    2874413  HIT:    2874395  MISS:         18
cpu0_ITLB LOAD      ACCESS:    2874413  HIT:    2874395  MISS:         18
cpu0_ITLB RFO       ACCESS:          0  HIT:          0  MISS:          0
cpu0_ITLB PREFETCH  ACCESS:          0  HIT:          0  MISS:          0
cpu0_ITLB WRITEBACK ACCESS:          0  HIT:          0  MISS:          0
cpu0_ITLB TRANSLATION ACCESS:          0  HIT:          0  MISS:          0
cpu0_ITLB PREFETCH  REQUESTED:          0  ISSUED:          0  USEFUL:          0  USELESS:          0
cpu0_ITLB AVERAGE MISS LATENCY: 405.222 cycles
cpu0_L1I TOTAL     ACCESS:    1779439  HIT:    1778967  MISS:        472
cpu0_L1I LOAD      ACCESS:    1779439  HIT:    1778967  MISS:        472
cpu0_L1I RFO       ACCESS:          0  HIT:          0  MISS:          0
cpu0_L1I PREFETCH  ACCESS:          0  HIT:          0  MISS:          0
cpu0_L1I WRITEBACK ACCESS:          0  HIT:          0  MISS:          0
cpu0_L1I TRANSLATION ACCESS:          0  HIT:          0  MISS:          0
cpu0_L1I PREFETCH  REQUESTED:          0  ISSUED:          0  USEFUL:          0  USELESS:          0
cpu0_L1I AVERAGE MISS LATENCY: 358.358 cycles
cpu0_STLB TOTAL     ACCESS:      65726  HIT:      34102  MISS:      31624
cpu0_STLB LOAD      ACCESS:      51670  HIT:      28204  MISS:      23466
cpu0_STLB RFO       ACCESS:      14056  HIT:       5898  MISS:       8158
cpu0_STLB PREFETCH  ACCESS:          0  HIT:          0  MISS:          0
cpu0_STLB WRITEBACK ACCESS:          0  HIT:          0  MISS:          0
cpu0_STLB TRANSLATION ACCESS:          0  HIT:          0  MISS:          0
cpu0_STLB PREFETCH  REQUESTED:          0  ISSUED:          0  USEFUL:          0  USELESS:          0
cpu0_STLB AVERAGE MISS LATENCY: 162.027 cycles
cpu0_L1D TOTAL     ACCESS:   24557022  HIT:   21146864  MISS:    3410158
cpu0_L1D LOAD      ACCESS:   16405518  HIT:   13788401  MISS:    2617117
cpu0_L1D RFO       ACCESS:    8122195  HIT:    7332794  MISS:     789401
cpu0_L1D PREFETCH  ACCESS:          0  HIT:          0  MISS:          0
cpu0_L1D WRITEBACK ACCESS:          0  HIT:          0  MISS:          0
cpu0_L1D TRANSLATION ACCESS:      29309  HIT:      25669  MISS:       3640
cpu0_L1D PREFETCH  REQUESTED:          0  ISSUED:          0  USEFUL:          0  USELESS:          0
cpu0_L1D AVERAGE MISS LATENCY: 481.132 cycles
cpu0_L2C TOTAL     ACCESS:    4455070  HIT:    1718507  MISS:    2736563
cpu0_L2C LOAD      ACCESS:    2617542  HIT:     507731  MISS:    2109811
cpu0_L2C RFO       ACCESS:     789309  HIT:     162830  MISS:     626479
cpu0_L2C PREFETCH  ACCESS:          0  HIT:          0  MISS:          0
cpu0_L2C WRITEBACK ACCESS:    1044579  HIT:    1044404  MISS:        175
cpu0_L2C TRANSLATION ACCESS:       3640  HIT:       3542  MISS:         98
cpu0_L2C PREFETCH  REQUESTED:          0  ISSUED:          0  USEFUL:          0  USELESS:          0
cpu0_L2C AVERAGE MISS LATENCY: 585.884 cycles
LLC TOTAL     ACCESS:    3497100  HIT:     805635  MISS:    2691465
LLC LOAD      ACCESS:    2109811  HIT:     493858  MISS:    1615953
LLC RFO       ACCESS:     626479  HIT:     108835  MISS:     517644
LLC PREFETCH  ACCESS:          0  HIT:          0  MISS:          0
LLC WRITEBACK ACCESS:     760712  HIT:     202923  MISS:     557789
LLC TRANSLATION ACCESS:         98  HIT:         19  MISS:         79
LLC PREFETCH  REQUESTED:          0  ISSUED:          0  USEFUL:          0  USELESS:          0
LLC AVERAGE MISS LATENCY: 574.278 cycles
OPTgen accesses: 45255
OPTgen hits: 13265
OPTgen hit rate: 29.3117



DRAM Statistics
 CHANNEL 0
 RQ ROW_BUFFER_HIT:     218009  ROW_BUFFER_MISS:    1915289
 DBUS AVG_CONGESTED_CYCLE:    3.95944
 WQ ROW_BUFFER_HIT:      62200  ROW_BUFFER_MISS:     602376  FULL:      36005


CPU 0 Branch Prediction Accuracy: 96.8713% MPKI: 1.55303 Average ROB Occupancy at Mispredict: 297.845
Branch type MPKI
BRANCH_DIRECT_JUMP: 0.00018
BRANCH_INDIRECT: 0
BRANCH_CONDITIONAL: 1.55065
BRANCH_DIRECT_CALL: 0.00113
BRANCH_INDIRECT_CALL: 0
BRANCH_RETURN: 0.00107

