
*** ChampSim Multicore Out-of-Order Simulator ***

Warmup Instructions: 10000000
Simulation Instructions: 100000000
Number of CPUs: 1
Off-chip DRAM Size: 4 GiB Channels: 1 Width: 64-bit Data Rate: 3200 MT/s

VirtualMemory physical capacity: 8588881920 num_ppages: 2096895
VirtualMemory page size: 4096 log2_page_size: 12

CPU 0 runs /datasets/cs240c-wi22-a00-public/data/Assignment2/astar_23B.trace.xz
CPU 0 Bimodal branch predictor
Basic BTB sets: 1024 ways: 8 indirect buffer size: 4096 RAS size: 64
Initialize Hawkeye state
Heartbeat CPU 0 instructions: 10000002 cycles: 2670768 heartbeat IPC: 3.74424 cumulative IPC: 3.74424 (Simulation time: 0 hr 0 min 42 sec) 

Warmup complete CPU 0 instructions: 10000002 cycles: 2670768 (Simulation time: 0 hr 0 min 42 sec) 

Heartbeat CPU 0 instructions: 20000003 cycles: 25559643 heartbeat IPC: 0.436894 cumulative IPC: 0.436894 (Simulation time: 0 hr 1 min 32 sec) 
Heartbeat CPU 0 instructions: 30000000 cycles: 49833089 heartbeat IPC: 0.411973 cumulative IPC: 0.424067 (Simulation time: 0 hr 2 min 25 sec) 
Heartbeat CPU 0 instructions: 40000002 cycles: 74299486 heartbeat IPC: 0.408724 cumulative IPC: 0.418826 (Simulation time: 0 hr 3 min 18 sec) 
Heartbeat CPU 0 instructions: 50000002 cycles: 98512718 heartbeat IPC: 0.412997 cumulative IPC: 0.417354 (Simulation time: 0 hr 4 min 11 sec) 
Heartbeat CPU 0 instructions: 60000000 cycles: 123090292 heartbeat IPC: 0.406875 cumulative IPC: 0.415215 (Simulation time: 0 hr 5 min 4 sec) 
Heartbeat CPU 0 instructions: 70000000 cycles: 146187250 heartbeat IPC: 0.432957 cumulative IPC: 0.41807 (Simulation time: 0 hr 5 min 56 sec) 
Heartbeat CPU 0 instructions: 80000000 cycles: 170331892 heartbeat IPC: 0.414171 cumulative IPC: 0.417509 (Simulation time: 0 hr 6 min 49 sec) 
Heartbeat CPU 0 instructions: 90000004 cycles: 195130451 heartbeat IPC: 0.403249 cumulative IPC: 0.415671 (Simulation time: 0 hr 7 min 42 sec) 
Heartbeat CPU 0 instructions: 100000002 cycles: 218673954 heartbeat IPC: 0.424746 cumulative IPC: 0.416661 (Simulation time: 0 hr 8 min 35 sec) 
Heartbeat CPU 0 instructions: 110000003 cycles: 242665762 heartbeat IPC: 0.416809 cumulative IPC: 0.416675 (Simulation time: 0 hr 9 min 28 sec) 
Finished CPU 0 instructions: 100000001 cycles: 239994994 cumulative IPC: 0.416675 (Simulation time: 0 hr 9 min 28 sec) 

ChampSim completed all CPUs

Region of Interest Statistics

CPU 0 cumulative IPC: 0.416675 instructions: 100000001 cycles: 239994994
cpu0_DTLB TOTAL     ACCESS:   24054195  HIT:   21626349  MISS:    2427846
cpu0_DTLB LOAD      ACCESS:   21285524  HIT:   19103590  MISS:    2181934
cpu0_DTLB RFO       ACCESS:    2768671  HIT:    2522759  MISS:     245912
cpu0_DTLB PREFETCH  ACCESS:          0  HIT:          0  MISS:          0
cpu0_DTLB WRITEBACK ACCESS:          0  HIT:          0  MISS:          0
cpu0_DTLB TRANSLATION ACCESS:          0  HIT:          0  MISS:          0
cpu0_DTLB PREFETCH  REQUESTED:          0  ISSUED:          0  USEFUL:          0  USELESS:          0
cpu0_DTLB AVERAGE MISS LATENCY: 10.5704 cycles
cpu0_ITLB TOTAL     ACCESS:   12810388  HIT:   12810378  MISS:         10
cpu0_ITLB LOAD      ACCESS:   12810388  HIT:   12810378  MISS:         10
cpu0_ITLB RFO       ACCESS:          0  HIT:          0  MISS:          0
cpu0_ITLB PREFETCH  ACCESS:          0  HIT:          0  MISS:          0
cpu0_ITLB WRITEBACK ACCESS:          0  HIT:          0  MISS:          0
cpu0_ITLB TRANSLATION ACCESS:          0  HIT:          0  MISS:          0
cpu0_ITLB PREFETCH  REQUESTED:          0  ISSUED:          0  USEFUL:          0  USELESS:          0
cpu0_ITLB AVERAGE MISS LATENCY: 239.6 cycles
cpu0_L1I TOTAL     ACCESS:       4965  HIT:       4864  MISS:        101
cpu0_L1I LOAD      ACCESS:       4965  HIT:       4864  MISS:        101
cpu0_L1I RFO       ACCESS:          0  HIT:          0  MISS:          0
cpu0_L1I PREFETCH  ACCESS:          0  HIT:          0  MISS:          0
cpu0_L1I WRITEBACK ACCESS:          0  HIT:          0  MISS:          0
cpu0_L1I TRANSLATION ACCESS:          0  HIT:          0  MISS:          0
cpu0_L1I PREFETCH  REQUESTED:          0  ISSUED:          0  USEFUL:          0  USELESS:          0
cpu0_L1I AVERAGE MISS LATENCY: 201.733 cycles
cpu0_STLB TOTAL     ACCESS:    2427856  HIT:    2026646  MISS:     401210
cpu0_STLB LOAD      ACCESS:    2181944  HIT:    1847056  MISS:     334888
cpu0_STLB RFO       ACCESS:     245912  HIT:     179590  MISS:      66322
cpu0_STLB PREFETCH  ACCESS:          0  HIT:          0  MISS:          0
cpu0_STLB WRITEBACK ACCESS:          0  HIT:          0  MISS:          0
cpu0_STLB TRANSLATION ACCESS:          0  HIT:          0  MISS:          0
cpu0_STLB PREFETCH  REQUESTED:          0  ISSUED:          0  USEFUL:          0  USELESS:          0
cpu0_STLB AVERAGE MISS LATENCY: 9.44306 cycles
cpu0_L1D TOTAL     ACCESS:   26431711  HIT:   23507219  MISS:    2924492
cpu0_L1D LOAD      ACCESS:   21757764  HIT:   18872338  MISS:    2885426
cpu0_L1D RFO       ACCESS:    4287421  HIT:    4250338  MISS:      37083
cpu0_L1D PREFETCH  ACCESS:          0  HIT:          0  MISS:          0
cpu0_L1D WRITEBACK ACCESS:          0  HIT:          0  MISS:          0
cpu0_L1D TRANSLATION ACCESS:     386526  HIT:     384543  MISS:       1983
cpu0_L1D PREFETCH  REQUESTED:          0  ISSUED:          0  USEFUL:          0  USELESS:          0
cpu0_L1D AVERAGE MISS LATENCY: 33.5745 cycles
cpu0_L2C TOTAL     ACCESS:    3881066  HIT:    2756699  MISS:    1124367
cpu0_L2C LOAD      ACCESS:    2885456  HIT:    1767328  MISS:    1118128
cpu0_L2C RFO       ACCESS:      37083  HIT:      31088  MISS:       5995
cpu0_L2C PREFETCH  ACCESS:          0  HIT:          0  MISS:          0
cpu0_L2C WRITEBACK ACCESS:     956544  HIT:     956488  MISS:         56
cpu0_L2C TRANSLATION ACCESS:       1983  HIT:       1795  MISS:        188
cpu0_L2C PREFETCH  REQUESTED:          0  ISSUED:          0  USEFUL:          0  USELESS:          0
cpu0_L2C AVERAGE MISS LATENCY: 58.6807 cycles
LLC TOTAL     ACCESS:    1532663  HIT:    1252991  MISS:     279672
LLC LOAD      ACCESS:    1117972  HIT:     873415  MISS:     244557
LLC RFO       ACCESS:       5995  HIT:       5674  MISS:        321
LLC PREFETCH  ACCESS:          0  HIT:          0  MISS:          0
LLC WRITEBACK ACCESS:     408508  HIT:     373726  MISS:      34782
LLC TRANSLATION ACCESS:        188  HIT:        176  MISS:         12
LLC PREFETCH  REQUESTED:          0  ISSUED:          0  USEFUL:          0  USELESS:          0
LLC AVERAGE MISS LATENCY: 151.503 cycles
OPTgen accesses: 18808
OPTgen hits: 14832
OPTgen hit rate: 78.8601



DRAM Statistics
 CHANNEL 0
 RQ ROW_BUFFER_HIT:        697  ROW_BUFFER_MISS:     243893
 DBUS AVG_CONGESTED_CYCLE:    3.57305
 WQ ROW_BUFFER_HIT:       7175  ROW_BUFFER_MISS:     135304  FULL:          0


CPU 0 Branch Prediction Accuracy: 69.3175% MPKI: 58.5794 Average ROB Occupancy at Mispredict: 5.13461
Branch type MPKI
BRANCH_DIRECT_JUMP: 0.00025
BRANCH_INDIRECT: 0
BRANCH_CONDITIONAL: 58.5789
BRANCH_DIRECT_CALL: 0.00016
BRANCH_INDIRECT_CALL: 0
BRANCH_RETURN: 0.00016

