
*** ChampSim Multicore Out-of-Order Simulator ***

Warmup Instructions: 10000000
Simulation Instructions: 100000000
Number of CPUs: 1
Off-chip DRAM Size: 4 GiB Channels: 1 Width: 64-bit Data Rate: 3200 MT/s

VirtualMemory physical capacity: 8588881920 num_ppages: 2096895
VirtualMemory page size: 4096 log2_page_size: 12

CPU 0 runs /datasets/cs240c-wi22-a00-public/data/Assignment2/omnetpp_340B.trace.xz
CPU 0 Bimodal branch predictor
Basic BTB sets: 1024 ways: 8 indirect buffer size: 4096 RAS size: 64
Initialize Hawkeye state
Heartbeat CPU 0 instructions: 10000002 cycles: 2500207 heartbeat IPC: 3.99967 cumulative IPC: 3.99967 (Simulation time: 0 hr 0 min 35 sec) 

Warmup complete CPU 0 instructions: 10000002 cycles: 2500207 (Simulation time: 0 hr 0 min 35 sec) 

Heartbeat CPU 0 instructions: 20000004 cycles: 28005500 heartbeat IPC: 0.392076 cumulative IPC: 0.392076 (Simulation time: 0 hr 1 min 49 sec) 
Heartbeat CPU 0 instructions: 30000002 cycles: 53270564 heartbeat IPC: 0.395803 cumulative IPC: 0.393931 (Simulation time: 0 hr 3 min 2 sec) 
Heartbeat CPU 0 instructions: 40000000 cycles: 78045057 heartbeat IPC: 0.403641 cumulative IPC: 0.397115 (Simulation time: 0 hr 4 min 12 sec) 
Heartbeat CPU 0 instructions: 50000002 cycles: 103144571 heartbeat IPC: 0.398414 cumulative IPC: 0.397439 (Simulation time: 0 hr 5 min 20 sec) 
Heartbeat CPU 0 instructions: 60000001 cycles: 128645663 heartbeat IPC: 0.39214 cumulative IPC: 0.396368 (Simulation time: 0 hr 6 min 34 sec) 
Heartbeat CPU 0 instructions: 70000003 cycles: 154330043 heartbeat IPC: 0.389342 cumulative IPC: 0.395179 (Simulation time: 0 hr 7 min 41 sec) 
Heartbeat CPU 0 instructions: 80000003 cycles: 180828044 heartbeat IPC: 0.377387 cumulative IPC: 0.392535 (Simulation time: 0 hr 8 min 56 sec) 
Heartbeat CPU 0 instructions: 90000000 cycles: 207067699 heartbeat IPC: 0.381102 cumulative IPC: 0.391069 (Simulation time: 0 hr 10 min 6 sec) 
Heartbeat CPU 0 instructions: 100000000 cycles: 233610702 heartbeat IPC: 0.376747 cumulative IPC: 0.389424 (Simulation time: 0 hr 11 min 23 sec) 
Heartbeat CPU 0 instructions: 110000000 cycles: 258925083 heartbeat IPC: 0.395032 cumulative IPC: 0.389978 (Simulation time: 0 hr 12 min 39 sec) 
Finished CPU 0 instructions: 100000000 cycles: 256424878 cumulative IPC: 0.389978 (Simulation time: 0 hr 12 min 39 sec) 

ChampSim completed all CPUs

Region of Interest Statistics

CPU 0 cumulative IPC: 0.389978 instructions: 100000000 cycles: 256424878
cpu0_DTLB TOTAL     ACCESS:   23839128  HIT:   21941930  MISS:    1897198
cpu0_DTLB LOAD      ACCESS:   13870603  HIT:   12289354  MISS:    1581249
cpu0_DTLB RFO       ACCESS:    9968525  HIT:    9652576  MISS:     315949
cpu0_DTLB PREFETCH  ACCESS:          0  HIT:          0  MISS:          0
cpu0_DTLB WRITEBACK ACCESS:          0  HIT:          0  MISS:          0
cpu0_DTLB TRANSLATION ACCESS:          0  HIT:          0  MISS:          0
cpu0_DTLB PREFETCH  REQUESTED:          0  ISSUED:          0  USEFUL:          0  USELESS:          0
cpu0_DTLB AVERAGE MISS LATENCY: 13.1591 cycles
cpu0_ITLB TOTAL     ACCESS:   11128543  HIT:   11093176  MISS:      35367
cpu0_ITLB LOAD      ACCESS:   11128543  HIT:   11093176  MISS:      35367
cpu0_ITLB RFO       ACCESS:          0  HIT:          0  MISS:          0
cpu0_ITLB PREFETCH  ACCESS:          0  HIT:          0  MISS:          0
cpu0_ITLB WRITEBACK ACCESS:          0  HIT:          0  MISS:          0
cpu0_ITLB TRANSLATION ACCESS:          0  HIT:          0  MISS:          0
cpu0_ITLB PREFETCH  REQUESTED:          0  ISSUED:          0  USEFUL:          0  USELESS:          0
cpu0_ITLB AVERAGE MISS LATENCY: 9.28035 cycles
cpu0_L1I TOTAL     ACCESS:    8347408  HIT:    8341058  MISS:       6350
cpu0_L1I LOAD      ACCESS:    8347408  HIT:    8341058  MISS:       6350
cpu0_L1I RFO       ACCESS:          0  HIT:          0  MISS:          0
cpu0_L1I PREFETCH  ACCESS:          0  HIT:          0  MISS:          0
cpu0_L1I WRITEBACK ACCESS:          0  HIT:          0  MISS:          0
cpu0_L1I TRANSLATION ACCESS:          0  HIT:          0  MISS:          0
cpu0_L1I PREFETCH  REQUESTED:          0  ISSUED:          0  USEFUL:          0  USELESS:          0
cpu0_L1I AVERAGE MISS LATENCY: 55.0652 cycles
cpu0_STLB TOTAL     ACCESS:    1932565  HIT:    1457370  MISS:     475195
cpu0_STLB LOAD      ACCESS:    1616616  HIT:    1262729  MISS:     353887
cpu0_STLB RFO       ACCESS:     315949  HIT:     194641  MISS:     121308
cpu0_STLB PREFETCH  ACCESS:          0  HIT:          0  MISS:          0
cpu0_STLB WRITEBACK ACCESS:          0  HIT:          0  MISS:          0
cpu0_STLB TRANSLATION ACCESS:          0  HIT:          0  MISS:          0
cpu0_STLB PREFETCH  REQUESTED:          0  ISSUED:          0  USEFUL:          0  USELESS:          0
cpu0_STLB AVERAGE MISS LATENCY: 16.1551 cycles
cpu0_L1D TOTAL     ACCESS:   31448829  HIT:   28950925  MISS:    2497904
cpu0_L1D LOAD      ACCESS:   15709584  HIT:   13526767  MISS:    2182817
cpu0_L1D RFO       ACCESS:   15298851  HIT:   14988270  MISS:     310581
cpu0_L1D PREFETCH  ACCESS:          0  HIT:          0  MISS:          0
cpu0_L1D WRITEBACK ACCESS:          0  HIT:          0  MISS:          0
cpu0_L1D TRANSLATION ACCESS:     440394  HIT:     435888  MISS:       4506
cpu0_L1D PREFETCH  REQUESTED:          0  ISSUED:          0  USEFUL:          0  USELESS:          0
cpu0_L1D AVERAGE MISS LATENCY: 144.135 cycles
cpu0_L2C TOTAL     ACCESS:    3581332  HIT:    1431333  MISS:    2149999
cpu0_L2C LOAD      ACCESS:    2189128  HIT:     330886  MISS:    1858242
cpu0_L2C RFO       ACCESS:     310581  HIT:      22197  MISS:     288384
cpu0_L2C PREFETCH  ACCESS:          0  HIT:          0  MISS:          0
cpu0_L2C WRITEBACK ACCESS:    1077117  HIT:    1074842  MISS:       2275
cpu0_L2C TRANSLATION ACCESS:       4506  HIT:       3408  MISS:       1098
cpu0_L2C PREFETCH  REQUESTED:          0  ISSUED:          0  USEFUL:          0  USELESS:          0
cpu0_L2C AVERAGE MISS LATENCY: 154.651 cycles
LLC TOTAL     ACCESS:    3079052  HIT:    1040173  MISS:    2038879
LLC LOAD      ACCESS:    1858241  HIT:     421361  MISS:    1436880
LLC RFO       ACCESS:     288384  HIT:      73854  MISS:     214530
LLC PREFETCH  ACCESS:          0  HIT:          0  MISS:          0
LLC WRITEBACK ACCESS:     931329  HIT:     544259  MISS:     387070
LLC TRANSLATION ACCESS:       1098  HIT:        699  MISS:        399
LLC PREFETCH  REQUESTED:          0  ISSUED:          0  USEFUL:          0  USELESS:          0
LLC AVERAGE MISS LATENCY: 140.958 cycles
OPTgen accesses: 36913
OPTgen hits: 14842
OPTgen hit rate: 40.2081



DRAM Statistics
 CHANNEL 0
 RQ ROW_BUFFER_HIT:      90878  ROW_BUFFER_MISS:    1560822
 DBUS AVG_CONGESTED_CYCLE:     3.9227
 WQ ROW_BUFFER_HIT:     172595  ROW_BUFFER_MISS:     531331  FULL:          0


CPU 0 Branch Prediction Accuracy: 94.4212% MPKI: 13.4017 Average ROB Occupancy at Mispredict: 52.1882
Branch type MPKI
BRANCH_DIRECT_JUMP: 0.00017
BRANCH_INDIRECT: 0.04543
BRANCH_CONDITIONAL: 13.2857
BRANCH_DIRECT_CALL: 8e-05
BRANCH_INDIRECT_CALL: 0.04734
BRANCH_RETURN: 0.02301

