
*** ChampSim Multicore Out-of-Order Simulator ***

Warmup Instructions: 10000000
Simulation Instructions: 100000000
Number of CPUs: 1
Off-chip DRAM Size: 4 GiB Channels: 1 Width: 64-bit Data Rate: 3200 MT/s

VirtualMemory physical capacity: 8588881920 num_ppages: 2096895
VirtualMemory page size: 4096 log2_page_size: 12

CPU 0 runs /datasets/cs240c-wi22-a00-public/data/Assignment2/astar_313B.trace.xz
CPU 0 Bimodal branch predictor
Basic BTB sets: 1024 ways: 8 indirect buffer size: 4096 RAS size: 64
Initialize Hawkeye state
Heartbeat CPU 0 instructions: 10000003 cycles: 3956182 heartbeat IPC: 2.52769 cumulative IPC: 2.52769 (Simulation time: 0 hr 0 min 59 sec) 

Warmup complete CPU 0 instructions: 10000003 cycles: 3956182 (Simulation time: 0 hr 0 min 59 sec) 

Heartbeat CPU 0 instructions: 20000004 cycles: 59459177 heartbeat IPC: 0.18017 cumulative IPC: 0.18017 (Simulation time: 0 hr 3 min 15 sec) 
Heartbeat CPU 0 instructions: 30000001 cycles: 119503638 heartbeat IPC: 0.166543 cumulative IPC: 0.173089 (Simulation time: 0 hr 6 min 13 sec) 
Heartbeat CPU 0 instructions: 40000000 cycles: 180255776 heartbeat IPC: 0.164603 cumulative IPC: 0.170165 (Simulation time: 0 hr 9 min 16 sec) 
Heartbeat CPU 0 instructions: 50000001 cycles: 234832789 heartbeat IPC: 0.183227 cumulative IPC: 0.173253 (Simulation time: 0 hr 11 min 30 sec) 
Heartbeat CPU 0 instructions: 60000000 cycles: 291113936 heartbeat IPC: 0.177679 cumulative IPC: 0.17412 (Simulation time: 0 hr 14 min 1 sec) 
Heartbeat CPU 0 instructions: 70000000 cycles: 349807290 heartbeat IPC: 0.170377 cumulative IPC: 0.173485 (Simulation time: 0 hr 16 min 44 sec) 
Heartbeat CPU 0 instructions: 80000000 cycles: 404985871 heartbeat IPC: 0.18123 cumulative IPC: 0.174551 (Simulation time: 0 hr 18 min 58 sec) 
Heartbeat CPU 0 instructions: 90000001 cycles: 460610275 heartbeat IPC: 0.179777 cumulative IPC: 0.175187 (Simulation time: 0 hr 21 min 15 sec) 
Heartbeat CPU 0 instructions: 100000000 cycles: 513581136 heartbeat IPC: 0.188783 cumulative IPC: 0.1766 (Simulation time: 0 hr 23 min 26 sec) 
Heartbeat CPU 0 instructions: 110000000 cycles: 569841888 heartbeat IPC: 0.177744 cumulative IPC: 0.176714 (Simulation time: 0 hr 26 min 4 sec) 
Finished CPU 0 instructions: 100000001 cycles: 565885707 cumulative IPC: 0.176714 (Simulation time: 0 hr 26 min 4 sec) 

ChampSim completed all CPUs

Region of Interest Statistics

CPU 0 cumulative IPC: 0.176714 instructions: 100000001 cycles: 565885707
cpu0_DTLB TOTAL     ACCESS:   34355812  HIT:   30537130  MISS:    3818682
cpu0_DTLB LOAD      ACCESS:   26411727  HIT:   23789657  MISS:    2622070
cpu0_DTLB RFO       ACCESS:    7944085  HIT:    6747473  MISS:    1196612
cpu0_DTLB PREFETCH  ACCESS:          0  HIT:          0  MISS:          0
cpu0_DTLB WRITEBACK ACCESS:          0  HIT:          0  MISS:          0
cpu0_DTLB TRANSLATION ACCESS:          0  HIT:          0  MISS:          0
cpu0_DTLB PREFETCH  REQUESTED:          0  ISSUED:          0  USEFUL:          0  USELESS:          0
cpu0_DTLB AVERAGE MISS LATENCY: 151.966 cycles
cpu0_ITLB TOTAL     ACCESS:   11440155  HIT:   11440155  MISS:          0
cpu0_ITLB LOAD      ACCESS:   11440155  HIT:   11440155  MISS:          0
cpu0_ITLB RFO       ACCESS:          0  HIT:          0  MISS:          0
cpu0_ITLB PREFETCH  ACCESS:          0  HIT:          0  MISS:          0
cpu0_ITLB WRITEBACK ACCESS:          0  HIT:          0  MISS:          0
cpu0_ITLB TRANSLATION ACCESS:          0  HIT:          0  MISS:          0
cpu0_ITLB PREFETCH  REQUESTED:          0  ISSUED:          0  USEFUL:          0  USELESS:          0
cpu0_ITLB AVERAGE MISS LATENCY: -nan cycles
cpu0_L1I TOTAL     ACCESS:        129  HIT:        126  MISS:          3
cpu0_L1I LOAD      ACCESS:        129  HIT:        126  MISS:          3
cpu0_L1I RFO       ACCESS:          0  HIT:          0  MISS:          0
cpu0_L1I PREFETCH  ACCESS:          0  HIT:          0  MISS:          0
cpu0_L1I WRITEBACK ACCESS:          0  HIT:          0  MISS:          0
cpu0_L1I TRANSLATION ACCESS:          0  HIT:          0  MISS:          0
cpu0_L1I PREFETCH  REQUESTED:          0  ISSUED:          0  USEFUL:          0  USELESS:          0
cpu0_L1I AVERAGE MISS LATENCY: 197 cycles
cpu0_STLB TOTAL     ACCESS:    3818682  HIT:    1896103  MISS:    1922579
cpu0_STLB LOAD      ACCESS:    2622070  HIT:    1784443  MISS:     837627
cpu0_STLB RFO       ACCESS:    1196612  HIT:     111660  MISS:    1084952
cpu0_STLB PREFETCH  ACCESS:          0  HIT:          0  MISS:          0
cpu0_STLB WRITEBACK ACCESS:          0  HIT:          0  MISS:          0
cpu0_STLB TRANSLATION ACCESS:          0  HIT:          0  MISS:          0
cpu0_STLB PREFETCH  REQUESTED:          0  ISSUED:          0  USEFUL:          0  USELESS:          0
cpu0_STLB AVERAGE MISS LATENCY: 283.774 cycles
cpu0_L1D TOTAL     ACCESS:   35962140  HIT:   30109391  MISS:    5852749
cpu0_L1D LOAD      ACCESS:   24414202  HIT:   20483233  MISS:    3930969
cpu0_L1D RFO       ACCESS:   10121065  HIT:    8210408  MISS:    1910657
cpu0_L1D PREFETCH  ACCESS:          0  HIT:          0  MISS:          0
cpu0_L1D WRITEBACK ACCESS:          0  HIT:          0  MISS:          0
cpu0_L1D TRANSLATION ACCESS:    1426873  HIT:    1415750  MISS:      11123
cpu0_L1D PREFETCH  REQUESTED:          0  ISSUED:          0  USEFUL:          0  USELESS:          0
cpu0_L1D AVERAGE MISS LATENCY: 364.189 cycles
cpu0_L2C TOTAL     ACCESS:    8697456  HIT:    4509741  MISS:    4187715
cpu0_L2C LOAD      ACCESS:    3930961  HIT:    1549508  MISS:    2381453
cpu0_L2C RFO       ACCESS:    1910657  HIT:     106289  MISS:    1804368
cpu0_L2C PREFETCH  ACCESS:          0  HIT:          0  MISS:          0
cpu0_L2C WRITEBACK ACCESS:    2844715  HIT:    2844545  MISS:        170
cpu0_L2C TRANSLATION ACCESS:      11123  HIT:       9399  MISS:       1724
cpu0_L2C PREFETCH  REQUESTED:          0  ISSUED:          0  USEFUL:          0  USELESS:          0
cpu0_L2C AVERAGE MISS LATENCY: 493.582 cycles
LLC TOTAL     ACCESS:    6918022  HIT:    2641723  MISS:    4276299
LLC LOAD      ACCESS:    2381453  HIT:     469553  MISS:    1911900
LLC RFO       ACCESS:    1804367  HIT:     757586  MISS:    1046781
LLC PREFETCH  ACCESS:          0  HIT:          0  MISS:          0
LLC WRITEBACK ACCESS:    2730478  HIT:    1413575  MISS:    1316903
LLC TRANSLATION ACCESS:       1724  HIT:       1009  MISS:        715
LLC PREFETCH  REQUESTED:          0  ISSUED:          0  USEFUL:          0  USELESS:          0
LLC AVERAGE MISS LATENCY: 462.788 cycles
OPTgen accesses: 73536
OPTgen hits: 26074
OPTgen hit rate: 35.4575



DRAM Statistics
 CHANNEL 0
 RQ ROW_BUFFER_HIT:      25434  ROW_BUFFER_MISS:    2933605
 DBUS AVG_CONGESTED_CYCLE:    3.99805
 WQ ROW_BUFFER_HIT:     208090  ROW_BUFFER_MISS:    1380250  FULL:     183561


CPU 0 Branch Prediction Accuracy: 88.672% MPKI: 23.9003 Average ROB Occupancy at Mispredict: 22.8524
Branch type MPKI
BRANCH_DIRECT_JUMP: 1e-05
BRANCH_INDIRECT: 0
BRANCH_CONDITIONAL: 23.8999
BRANCH_DIRECT_CALL: 0
BRANCH_INDIRECT_CALL: 0.00038
BRANCH_RETURN: 0

