
*** ChampSim Multicore Out-of-Order Simulator ***

Warmup Instructions: 10000000
Simulation Instructions: 100000000
Number of CPUs: 1
Off-chip DRAM Size: 4 GiB Channels: 1 Width: 64-bit Data Rate: 3200 MT/s

VirtualMemory physical capacity: 8588881920 num_ppages: 2096895
VirtualMemory page size: 4096 log2_page_size: 12

CPU 0 runs /datasets/cs240c-wi22-a00-public/data/Assignment2/mcf_250B.trace.xz
CPU 0 Bimodal branch predictor
Basic BTB sets: 1024 ways: 8 indirect buffer size: 4096 RAS size: 64
Initialize Hawkeye state
Heartbeat CPU 0 instructions: 10000004 cycles: 3834274 heartbeat IPC: 2.60806 cumulative IPC: 2.60806 (Simulation time: 0 hr 0 min 58 sec) 

Warmup complete CPU 0 instructions: 10000004 cycles: 3834274 (Simulation time: 0 hr 0 min 58 sec) 

Heartbeat CPU 0 instructions: 20000000 cycles: 147457817 heartbeat IPC: 0.0696264 cumulative IPC: 0.0696264 (Simulation time: 0 hr 5 min 31 sec) 
Heartbeat CPU 0 instructions: 30000000 cycles: 285584140 heartbeat IPC: 0.0723975 cumulative IPC: 0.0709849 (Simulation time: 0 hr 9 min 56 sec) 
Heartbeat CPU 0 instructions: 40000000 cycles: 435912266 heartbeat IPC: 0.0665212 cumulative IPC: 0.0694319 (Simulation time: 0 hr 14 min 38 sec) 
Heartbeat CPU 0 instructions: 50000000 cycles: 577241661 heartbeat IPC: 0.0707567 cumulative IPC: 0.0697584 (Simulation time: 0 hr 19 min 13 sec) 
Heartbeat CPU 0 instructions: 60000000 cycles: 718011125 heartbeat IPC: 0.0710381 cumulative IPC: 0.0700107 (Simulation time: 0 hr 23 min 38 sec) 
Heartbeat CPU 0 instructions: 70000000 cycles: 851833331 heartbeat IPC: 0.074726 cumulative IPC: 0.0707548 (Simulation time: 0 hr 27 min 43 sec) 
Heartbeat CPU 0 instructions: 80000000 cycles: 996270446 heartbeat IPC: 0.0692343 cumulative IPC: 0.0705335 (Simulation time: 0 hr 32 min 15 sec) 
Heartbeat CPU 0 instructions: 90000000 cycles: 1123392392 heartbeat IPC: 0.0786646 cumulative IPC: 0.0714568 (Simulation time: 0 hr 36 min 27 sec) 
Heartbeat CPU 0 instructions: 100000000 cycles: 1264514688 heartbeat IPC: 0.0708605 cumulative IPC: 0.07139 (Simulation time: 0 hr 40 min 58 sec) 
Heartbeat CPU 0 instructions: 110000000 cycles: 1407870798 heartbeat IPC: 0.0697564 cumulative IPC: 0.0712232 (Simulation time: 0 hr 45 min 32 sec) 
Finished CPU 0 instructions: 100000000 cycles: 1404036535 cumulative IPC: 0.0712232 (Simulation time: 0 hr 45 min 32 sec) 

ChampSim completed all CPUs

Region of Interest Statistics

CPU 0 cumulative IPC: 0.0712232 instructions: 100000000 cycles: 1404036535
cpu0_DTLB TOTAL     ACCESS:   20766528  HIT:    2976262  MISS:   17790266
cpu0_DTLB LOAD      ACCESS:   20271294  HIT:    2536921  MISS:   17734373
cpu0_DTLB RFO       ACCESS:     495234  HIT:     439341  MISS:      55893
cpu0_DTLB PREFETCH  ACCESS:          0  HIT:          0  MISS:          0
cpu0_DTLB WRITEBACK ACCESS:          0  HIT:          0  MISS:          0
cpu0_DTLB TRANSLATION ACCESS:          0  HIT:          0  MISS:          0
cpu0_DTLB PREFETCH  REQUESTED:          0  ISSUED:          0  USEFUL:          0  USELESS:          0
cpu0_DTLB AVERAGE MISS LATENCY: 11.9331 cycles
cpu0_ITLB TOTAL     ACCESS:   11314997  HIT:   11314997  MISS:          0
cpu0_ITLB LOAD      ACCESS:   11314997  HIT:   11314997  MISS:          0
cpu0_ITLB RFO       ACCESS:          0  HIT:          0  MISS:          0
cpu0_ITLB PREFETCH  ACCESS:          0  HIT:          0  MISS:          0
cpu0_ITLB WRITEBACK ACCESS:          0  HIT:          0  MISS:          0
cpu0_ITLB TRANSLATION ACCESS:          0  HIT:          0  MISS:          0
cpu0_ITLB PREFETCH  REQUESTED:          0  ISSUED:          0  USEFUL:          0  USELESS:          0
cpu0_ITLB AVERAGE MISS LATENCY: -nan cycles
cpu0_L1I TOTAL     ACCESS:          4  HIT:          4  MISS:          0
cpu0_L1I LOAD      ACCESS:          4  HIT:          4  MISS:          0
cpu0_L1I RFO       ACCESS:          0  HIT:          0  MISS:          0
cpu0_L1I PREFETCH  ACCESS:          0  HIT:          0  MISS:          0
cpu0_L1I WRITEBACK ACCESS:          0  HIT:          0  MISS:          0
cpu0_L1I TRANSLATION ACCESS:          0  HIT:          0  MISS:          0
cpu0_L1I PREFETCH  REQUESTED:          0  ISSUED:          0  USEFUL:          0  USELESS:          0
cpu0_L1I AVERAGE MISS LATENCY: -nan cycles
cpu0_STLB TOTAL     ACCESS:   17790266  HIT:   17413132  MISS:     377134
cpu0_STLB LOAD      ACCESS:   17734373  HIT:   17359376  MISS:     374997
cpu0_STLB RFO       ACCESS:      55893  HIT:      53756  MISS:       2137
cpu0_STLB PREFETCH  ACCESS:          0  HIT:          0  MISS:          0
cpu0_STLB WRITEBACK ACCESS:          0  HIT:          0  MISS:          0
cpu0_STLB TRANSLATION ACCESS:          0  HIT:          0  MISS:          0
cpu0_STLB PREFETCH  REQUESTED:          0  ISSUED:          0  USEFUL:          0  USELESS:          0
cpu0_STLB AVERAGE MISS LATENCY: 138.332 cycles
cpu0_L1D TOTAL     ACCESS:   21384671  HIT:    3440777  MISS:   17943894
cpu0_L1D LOAD      ACCESS:   20344055  HIT:    2560093  MISS:   17783962
cpu0_L1D RFO       ACCESS:     664710  HIT:     633051  MISS:      31659
cpu0_L1D PREFETCH  ACCESS:          0  HIT:          0  MISS:          0
cpu0_L1D WRITEBACK ACCESS:          0  HIT:          0  MISS:          0
cpu0_L1D TRANSLATION ACCESS:     375906  HIT:     247633  MISS:     128273
cpu0_L1D PREFETCH  REQUESTED:          0  ISSUED:          0  USEFUL:          0  USELESS:          0
cpu0_L1D AVERAGE MISS LATENCY: 230.81 cycles
cpu0_L2C TOTAL     ACCESS:   18302601  HIT:    5792348  MISS:   12510253
cpu0_L2C LOAD      ACCESS:   17783935  HIT:    5386576  MISS:   12397359
cpu0_L2C RFO       ACCESS:      31658  HIT:       9144  MISS:      22514
cpu0_L2C PREFETCH  ACCESS:          0  HIT:          0  MISS:          0
cpu0_L2C WRITEBACK ACCESS:     358735  HIT:     358733  MISS:          2
cpu0_L2C TRANSLATION ACCESS:     128273  HIT:      37895  MISS:      90378
cpu0_L2C PREFETCH  REQUESTED:          0  ISSUED:          0  USEFUL:          0  USELESS:          0
cpu0_L2C AVERAGE MISS LATENCY: 315.269 cycles
LLC TOTAL     ACCESS:   12800286  HIT:    5738885  MISS:    7061401
LLC LOAD      ACCESS:   12397359  HIT:    5553579  MISS:    6843780
LLC RFO       ACCESS:      22514  HIT:      11863  MISS:      10651
LLC PREFETCH  ACCESS:          0  HIT:          0  MISS:          0
LLC WRITEBACK ACCESS:     290035  HIT:     161607  MISS:     128428
LLC TRANSLATION ACCESS:      90378  HIT:      11836  MISS:      78542
LLC PREFETCH  REQUESTED:          0  ISSUED:          0  USEFUL:          0  USELESS:          0
LLC AVERAGE MISS LATENCY: 521.338 cycles
OPTgen accesses: 215309
OPTgen hits: 95915
OPTgen hit rate: 44.5476



DRAM Statistics
 CHANNEL 0
 RQ ROW_BUFFER_HIT:      41363  ROW_BUFFER_MISS:    6891422
 DBUS AVG_CONGESTED_CYCLE:    3.96424
 WQ ROW_BUFFER_HIT:      10536  ROW_BUFFER_MISS:     216197  FULL:          0


CPU 0 Branch Prediction Accuracy: 91.6559% MPKI: 25.5287 Average ROB Occupancy at Mispredict: 24.4572
Branch type MPKI
BRANCH_DIRECT_JUMP: 2e-05
BRANCH_INDIRECT: 0
BRANCH_CONDITIONAL: 25.5287
BRANCH_DIRECT_CALL: 0
BRANCH_INDIRECT_CALL: 0
BRANCH_RETURN: 0

