
*** ChampSim Multicore Out-of-Order Simulator ***

Warmup Instructions: 10000000
Simulation Instructions: 100000000
Number of CPUs: 1
Off-chip DRAM Size: 4 GiB Channels: 1 Width: 64-bit Data Rate: 3200 MT/s

VirtualMemory physical capacity: 8588881920 num_ppages: 2096895
VirtualMemory page size: 4096 log2_page_size: 12

CPU 0 runs /datasets/cs240c-wi22-a00-public/data/Assignment2/sphinx3_883B.trace.xz
CPU 0 Bimodal branch predictor
Basic BTB sets: 1024 ways: 8 indirect buffer size: 4096 RAS size: 64
Initialize Hawkeye state
Heartbeat CPU 0 instructions: 10000003 cycles: 2628875 heartbeat IPC: 3.80391 cumulative IPC: 3.80391 (Simulation time: 0 hr 0 min 35 sec) 

Warmup complete CPU 0 instructions: 10000003 cycles: 2628875 (Simulation time: 0 hr 0 min 35 sec) 

Heartbeat CPU 0 instructions: 20000000 cycles: 15489135 heartbeat IPC: 0.777589 cumulative IPC: 0.777589 (Simulation time: 0 hr 1 min 48 sec) 
Heartbeat CPU 0 instructions: 30000001 cycles: 27750884 heartbeat IPC: 0.815544 cumulative IPC: 0.796115 (Simulation time: 0 hr 3 min 1 sec) 
Heartbeat CPU 0 instructions: 40000004 cycles: 39598097 heartbeat IPC: 0.844081 cumulative IPC: 0.811486 (Simulation time: 0 hr 4 min 12 sec) 
Heartbeat CPU 0 instructions: 50000003 cycles: 50784614 heartbeat IPC: 0.893933 cumulative IPC: 0.830638 (Simulation time: 0 hr 5 min 21 sec) 
Heartbeat CPU 0 instructions: 60000000 cycles: 62201589 heartbeat IPC: 0.875888 cumulative IPC: 0.83931 (Simulation time: 0 hr 6 min 34 sec) 
Heartbeat CPU 0 instructions: 70000001 cycles: 71912842 heartbeat IPC: 1.02973 cumulative IPC: 0.866001 (Simulation time: 0 hr 7 min 37 sec) 
Heartbeat CPU 0 instructions: 80000000 cycles: 82519275 heartbeat IPC: 0.942824 cumulative IPC: 0.8762 (Simulation time: 0 hr 8 min 42 sec) 
Heartbeat CPU 0 instructions: 90000002 cycles: 91993779 heartbeat IPC: 1.05546 cumulative IPC: 0.895206 (Simulation time: 0 hr 9 min 42 sec) 
Heartbeat CPU 0 instructions: 100000003 cycles: 100617432 heartbeat IPC: 1.1596 cumulative IPC: 0.918475 (Simulation time: 0 hr 10 min 38 sec) 
Heartbeat CPU 0 instructions: 110000003 cycles: 111333629 heartbeat IPC: 0.933167 cumulative IPC: 0.919923 (Simulation time: 0 hr 11 min 42 sec) 
Finished CPU 0 instructions: 100000000 cycles: 108704754 cumulative IPC: 0.919923 (Simulation time: 0 hr 11 min 42 sec) 

ChampSim completed all CPUs

Region of Interest Statistics

CPU 0 cumulative IPC: 0.919923 instructions: 100000000 cycles: 108704754
cpu0_DTLB TOTAL     ACCESS:   16819889  HIT:   16659908  MISS:     159981
cpu0_DTLB LOAD      ACCESS:   15452778  HIT:   15301052  MISS:     151726
cpu0_DTLB RFO       ACCESS:    1367111  HIT:    1358856  MISS:       8255
cpu0_DTLB PREFETCH  ACCESS:          0  HIT:          0  MISS:          0
cpu0_DTLB WRITEBACK ACCESS:          0  HIT:          0  MISS:          0
cpu0_DTLB TRANSLATION ACCESS:          0  HIT:          0  MISS:          0
cpu0_DTLB PREFETCH  REQUESTED:          0  ISSUED:          0  USEFUL:          0  USELESS:          0
cpu0_DTLB AVERAGE MISS LATENCY: 12.8246 cycles
cpu0_ITLB TOTAL     ACCESS:    9416284  HIT:    9416219  MISS:         65
cpu0_ITLB LOAD      ACCESS:    9416284  HIT:    9416219  MISS:         65
cpu0_ITLB RFO       ACCESS:          0  HIT:          0  MISS:          0
cpu0_ITLB PREFETCH  ACCESS:          0  HIT:          0  MISS:          0
cpu0_ITLB WRITEBACK ACCESS:          0  HIT:          0  MISS:          0
cpu0_ITLB TRANSLATION ACCESS:          0  HIT:          0  MISS:          0
cpu0_ITLB PREFETCH  REQUESTED:          0  ISSUED:          0  USEFUL:          0  USELESS:          0
cpu0_ITLB AVERAGE MISS LATENCY: 148.385 cycles
cpu0_L1I TOTAL     ACCESS:     192487  HIT:     191107  MISS:       1380
cpu0_L1I LOAD      ACCESS:     192487  HIT:     191107  MISS:       1380
cpu0_L1I RFO       ACCESS:          0  HIT:          0  MISS:          0
cpu0_L1I PREFETCH  ACCESS:          0  HIT:          0  MISS:          0
cpu0_L1I WRITEBACK ACCESS:          0  HIT:          0  MISS:          0
cpu0_L1I TRANSLATION ACCESS:          0  HIT:          0  MISS:          0
cpu0_L1I PREFETCH  REQUESTED:          0  ISSUED:          0  USEFUL:          0  USELESS:          0
cpu0_L1I AVERAGE MISS LATENCY: 190.78 cycles
cpu0_STLB TOTAL     ACCESS:     160046  HIT:      99149  MISS:      60897
cpu0_STLB LOAD      ACCESS:     151791  HIT:      92113  MISS:      59678
cpu0_STLB RFO       ACCESS:       8255  HIT:       7036  MISS:       1219
cpu0_STLB PREFETCH  ACCESS:          0  HIT:          0  MISS:          0
cpu0_STLB WRITEBACK ACCESS:          0  HIT:          0  MISS:          0
cpu0_STLB TRANSLATION ACCESS:          0  HIT:          0  MISS:          0
cpu0_STLB PREFETCH  REQUESTED:          0  ISSUED:          0  USEFUL:          0  USELESS:          0
cpu0_STLB AVERAGE MISS LATENCY: 10.0702 cycles
cpu0_L1D TOTAL     ACCESS:   12392282  HIT:   10642961  MISS:    1749321
cpu0_L1D LOAD      ACCESS:   10130227  HIT:    8495835  MISS:    1634392
cpu0_L1D RFO       ACCESS:    2203914  HIT:    2089780  MISS:     114134
cpu0_L1D PREFETCH  ACCESS:          0  HIT:          0  MISS:          0
cpu0_L1D WRITEBACK ACCESS:          0  HIT:          0  MISS:          0
cpu0_L1D TRANSLATION ACCESS:      58141  HIT:      57346  MISS:        795
cpu0_L1D PREFETCH  REQUESTED:          0  ISSUED:          0  USEFUL:          0  USELESS:          0
cpu0_L1D AVERAGE MISS LATENCY: 128.42 cycles
cpu0_L2C TOTAL     ACCESS:    1908288  HIT:     517735  MISS:    1390553
cpu0_L2C LOAD      ACCESS:    1635769  HIT:     346977  MISS:    1288792
cpu0_L2C RFO       ACCESS:     114130  HIT:      12988  MISS:     101142
cpu0_L2C PREFETCH  ACCESS:          0  HIT:          0  MISS:          0
cpu0_L2C WRITEBACK ACCESS:     157594  HIT:     157297  MISS:        297
cpu0_L2C TRANSLATION ACCESS:        795  HIT:        473  MISS:        322
cpu0_L2C PREFETCH  REQUESTED:          0  ISSUED:          0  USEFUL:          0  USELESS:          0
cpu0_L2C AVERAGE MISS LATENCY: 147.835 cycles
LLC TOTAL     ACCESS:    1524794  HIT:     647031  MISS:     877763
LLC LOAD      ACCESS:    1288792  HIT:     489661  MISS:     799131
LLC RFO       ACCESS:     101142  HIT:      56626  MISS:      44516
LLC PREFETCH  ACCESS:          0  HIT:          0  MISS:          0
LLC WRITEBACK ACCESS:     134538  HIT:     100466  MISS:      34072
LLC TRANSLATION ACCESS:        322  HIT:        278  MISS:         44
LLC PREFETCH  REQUESTED:          0  ISSUED:          0  USEFUL:          0  USELESS:          0
LLC AVERAGE MISS LATENCY: 200.938 cycles
OPTgen accesses: 23985
OPTgen hits: 11753
OPTgen hit rate: 49.0015



DRAM Statistics
 CHANNEL 0
 RQ ROW_BUFFER_HIT:      89141  ROW_BUFFER_MISS:     753998
 DBUS AVG_CONGESTED_CYCLE:    3.85793
 WQ ROW_BUFFER_HIT:      11804  ROW_BUFFER_MISS:      42854  FULL:        550


CPU 0 Branch Prediction Accuracy: 91.645% MPKI: 7.87682 Average ROB Occupancy at Mispredict: 160.961
Branch type MPKI
BRANCH_DIRECT_JUMP: 0.0017
BRANCH_INDIRECT: 0.00111
BRANCH_CONDITIONAL: 7.87013
BRANCH_DIRECT_CALL: 0.00166
BRANCH_INDIRECT_CALL: 0.0005
BRANCH_RETURN: 0.00172

