
*** ChampSim Multicore Out-of-Order Simulator ***

Warmup Instructions: 10000000
Simulation Instructions: 100000000
Number of CPUs: 1
Off-chip DRAM Size: 4 GiB Channels: 1 Width: 64-bit Data Rate: 3200 MT/s

VirtualMemory physical capacity: 8588881920 num_ppages: 2096895
VirtualMemory page size: 4096 log2_page_size: 12

CPU 0 runs /datasets/cs240c-wi22-a00-public/data/Assignment2/GemsFDTD_109B.trace.xz
CPU 0 Bimodal branch predictor
Basic BTB sets: 1024 ways: 8 indirect buffer size: 4096 RAS size: 64
Initialize Hawkeye state
Heartbeat CPU 0 instructions: 10000004 cycles: 4294006 heartbeat IPC: 2.32883 cumulative IPC: 2.32883 (Simulation time: 0 hr 0 min 58 sec) 

Warmup complete CPU 0 instructions: 10000004 cycles: 4294006 (Simulation time: 0 hr 0 min 58 sec) 

Heartbeat CPU 0 instructions: 20000000 cycles: 34969862 heartbeat IPC: 0.325989 cumulative IPC: 0.325989 (Simulation time: 0 hr 4 min 11 sec) 
Heartbeat CPU 0 instructions: 30000004 cycles: 56217693 heartbeat IPC: 0.470636 cumulative IPC: 0.385181 (Simulation time: 0 hr 6 min 3 sec) 
Heartbeat CPU 0 instructions: 40000004 cycles: 62418311 heartbeat IPC: 1.61274 cumulative IPC: 0.516135 (Simulation time: 0 hr 6 min 47 sec) 
Heartbeat CPU 0 instructions: 50000002 cycles: 83219671 heartbeat IPC: 0.480738 cumulative IPC: 0.506806 (Simulation time: 0 hr 8 min 41 sec) 
Heartbeat CPU 0 instructions: 60000002 cycles: 123597935 heartbeat IPC: 0.247658 cumulative IPC: 0.419098 (Simulation time: 0 hr 12 min 27 sec) 
Heartbeat CPU 0 instructions: 70000002 cycles: 163407838 heartbeat IPC: 0.251194 cumulative IPC: 0.377089 (Simulation time: 0 hr 16 min 13 sec) 
Heartbeat CPU 0 instructions: 80000003 cycles: 203085688 heartbeat IPC: 0.25203 cumulative IPC: 0.352127 (Simulation time: 0 hr 19 min 51 sec) 
Heartbeat CPU 0 instructions: 90000000 cycles: 242738887 heartbeat IPC: 0.252186 cumulative IPC: 0.335507 (Simulation time: 0 hr 23 min 37 sec) 
Heartbeat CPU 0 instructions: 100000003 cycles: 282435895 heartbeat IPC: 0.251908 cumulative IPC: 0.323576 (Simulation time: 0 hr 27 min 20 sec) 
Heartbeat CPU 0 instructions: 110000004 cycles: 322112239 heartbeat IPC: 0.252039 cumulative IPC: 0.314645 (Simulation time: 0 hr 31 min 0 sec) 
Finished CPU 0 instructions: 100000000 cycles: 317818233 cumulative IPC: 0.314645 (Simulation time: 0 hr 31 min 0 sec) 

ChampSim completed all CPUs

Region of Interest Statistics

CPU 0 cumulative IPC: 0.314645 instructions: 100000000 cycles: 317818233
cpu0_DTLB TOTAL     ACCESS:   26447895  HIT:   26248471  MISS:     199424
cpu0_DTLB LOAD      ACCESS:   21016896  HIT:   20819472  MISS:     197424
cpu0_DTLB RFO       ACCESS:    5430999  HIT:    5428999  MISS:       2000
cpu0_DTLB PREFETCH  ACCESS:          0  HIT:          0  MISS:          0
cpu0_DTLB WRITEBACK ACCESS:          0  HIT:          0  MISS:          0
cpu0_DTLB TRANSLATION ACCESS:          0  HIT:          0  MISS:          0
cpu0_DTLB PREFETCH  REQUESTED:          0  ISSUED:          0  USEFUL:          0  USELESS:          0
cpu0_DTLB AVERAGE MISS LATENCY: 425.759 cycles
cpu0_ITLB TOTAL     ACCESS:    2051597  HIT:    2051579  MISS:         18
cpu0_ITLB LOAD      ACCESS:    2051597  HIT:    2051579  MISS:         18
cpu0_ITLB RFO       ACCESS:          0  HIT:          0  MISS:          0
cpu0_ITLB PREFETCH  ACCESS:          0  HIT:          0  MISS:          0
cpu0_ITLB WRITEBACK ACCESS:          0  HIT:          0  MISS:          0
cpu0_ITLB TRANSLATION ACCESS:          0  HIT:          0  MISS:          0
cpu0_ITLB PREFETCH  REQUESTED:          0  ISSUED:          0  USEFUL:          0  USELESS:          0
cpu0_ITLB AVERAGE MISS LATENCY: 249.278 cycles
cpu0_L1I TOTAL     ACCESS:    1722966  HIT:    1722536  MISS:        430
cpu0_L1I LOAD      ACCESS:    1722966  HIT:    1722536  MISS:        430
cpu0_L1I RFO       ACCESS:          0  HIT:          0  MISS:          0
cpu0_L1I PREFETCH  ACCESS:          0  HIT:          0  MISS:          0
cpu0_L1I WRITEBACK ACCESS:          0  HIT:          0  MISS:          0
cpu0_L1I TRANSLATION ACCESS:          0  HIT:          0  MISS:          0
cpu0_L1I PREFETCH  REQUESTED:          0  ISSUED:          0  USEFUL:          0  USELESS:          0
cpu0_L1I AVERAGE MISS LATENCY: 384.002 cycles
cpu0_STLB TOTAL     ACCESS:     199442  HIT:      33981  MISS:     165461
cpu0_STLB LOAD      ACCESS:     197442  HIT:      32675  MISS:     164767
cpu0_STLB RFO       ACCESS:       2000  HIT:       1306  MISS:        694
cpu0_STLB PREFETCH  ACCESS:          0  HIT:          0  MISS:          0
cpu0_STLB WRITEBACK ACCESS:          0  HIT:          0  MISS:          0
cpu0_STLB TRANSLATION ACCESS:          0  HIT:          0  MISS:          0
cpu0_STLB PREFETCH  REQUESTED:          0  ISSUED:          0  USEFUL:          0  USELESS:          0
cpu0_STLB AVERAGE MISS LATENCY: 502.213 cycles
cpu0_L1D TOTAL     ACCESS:   22884271  HIT:   19654086  MISS:    3230185
cpu0_L1D LOAD      ACCESS:   13785218  HIT:   10685328  MISS:    3099890
cpu0_L1D RFO       ACCESS:    9008994  HIT:    8881382  MISS:     127612
cpu0_L1D PREFETCH  ACCESS:          0  HIT:          0  MISS:          0
cpu0_L1D WRITEBACK ACCESS:          0  HIT:          0  MISS:          0
cpu0_L1D TRANSLATION ACCESS:      90059  HIT:      87376  MISS:       2683
cpu0_L1D PREFETCH  REQUESTED:          0  ISSUED:          0  USEFUL:          0  USELESS:          0
cpu0_L1D AVERAGE MISS LATENCY: 717.711 cycles
cpu0_L2C TOTAL     ACCESS:    4595447  HIT:    1423449  MISS:    3171998
cpu0_L2C LOAD      ACCESS:    3100320  HIT:      41150  MISS:    3059170
cpu0_L2C RFO       ACCESS:     127612  HIT:      15080  MISS:     112532
cpu0_L2C PREFETCH  ACCESS:          0  HIT:          0  MISS:          0
cpu0_L2C WRITEBACK ACCESS:    1364832  HIT:    1364732  MISS:        100
cpu0_L2C TRANSLATION ACCESS:       2683  HIT:       2487  MISS:        196
cpu0_L2C PREFETCH  REQUESTED:          0  ISSUED:          0  USEFUL:          0  USELESS:          0
cpu0_L2C AVERAGE MISS LATENCY: 719.71 cycles
LLC TOTAL     ACCESS:    4523243  HIT:    1096784  MISS:    3426459
LLC LOAD      ACCESS:    3059165  HIT:     708823  MISS:    2350342
LLC RFO       ACCESS:     112532  HIT:      94202  MISS:      18330
LLC PREFETCH  ACCESS:          0  HIT:          0  MISS:          0
LLC WRITEBACK ACCESS:    1351350  HIT:     293660  MISS:    1057690
LLC TRANSLATION ACCESS:        196  HIT:         99  MISS:         97
LLC PREFETCH  REQUESTED:          0  ISSUED:          0  USEFUL:          0  USELESS:          0
LLC AVERAGE MISS LATENCY: 646.806 cycles
OPTgen accesses: 53584
OPTgen hits: 13977
OPTgen hit rate: 26.0843



DRAM Statistics
 CHANNEL 0
 RQ ROW_BUFFER_HIT:      43912  ROW_BUFFER_MISS:    2324803
 DBUS AVG_CONGESTED_CYCLE:    3.99635
 WQ ROW_BUFFER_HIT:      21092  ROW_BUFFER_MISS:    1240021  FULL:      52496


CPU 0 Branch Prediction Accuracy: 98.929% MPKI: 0.55515 Average ROB Occupancy at Mispredict: 266.768
Branch type MPKI
BRANCH_DIRECT_JUMP: 0.00045
BRANCH_INDIRECT: 1e-05
BRANCH_CONDITIONAL: 0.5534
BRANCH_DIRECT_CALL: 0.00065
BRANCH_INDIRECT_CALL: 0
BRANCH_RETURN: 0.00064

