
*** ChampSim Multicore Out-of-Order Simulator ***

Warmup Instructions: 10000000
Simulation Instructions: 100000000
Number of CPUs: 1
Off-chip DRAM Size: 4 GiB Channels: 1 Width: 64-bit Data Rate: 3200 MT/s

VirtualMemory physical capacity: 8588881920 num_ppages: 2096895
VirtualMemory page size: 4096 log2_page_size: 12

CPU 0 runs /datasets/cs240c-wi22-a00-public/data/Assignment2/mcf_46B.trace.xz
CPU 0 Bimodal branch predictor
Basic BTB sets: 1024 ways: 8 indirect buffer size: 4096 RAS size: 64
Initialize Hawkeye state
Heartbeat CPU 0 instructions: 10000001 cycles: 3434373 heartbeat IPC: 2.91174 cumulative IPC: 2.91174 (Simulation time: 0 hr 0 min 42 sec) 

Warmup complete CPU 0 instructions: 10000001 cycles: 3434373 (Simulation time: 0 hr 0 min 42 sec) 

Heartbeat CPU 0 instructions: 20000001 cycles: 118248678 heartbeat IPC: 0.0870972 cumulative IPC: 0.0870972 (Simulation time: 0 hr 3 min 49 sec) 
Heartbeat CPU 0 instructions: 30000004 cycles: 227384659 heartbeat IPC: 0.0916288 cumulative IPC: 0.0893055 (Simulation time: 0 hr 6 min 43 sec) 
Heartbeat CPU 0 instructions: 40000004 cycles: 335064161 heartbeat IPC: 0.0928682 cumulative IPC: 0.0904623 (Simulation time: 0 hr 9 min 33 sec) 
Heartbeat CPU 0 instructions: 50000003 cycles: 441009603 heartbeat IPC: 0.0943882 cumulative IPC: 0.0914129 (Simulation time: 0 hr 12 min 35 sec) 
Heartbeat CPU 0 instructions: 60000000 cycles: 552995904 heartbeat IPC: 0.0892966 cumulative IPC: 0.0909816 (Simulation time: 0 hr 15 min 56 sec) 
Heartbeat CPU 0 instructions: 70000004 cycles: 664980728 heartbeat IPC: 0.0892979 cumulative IPC: 0.0906966 (Simulation time: 0 hr 19 min 3 sec) 
Heartbeat CPU 0 instructions: 80000003 cycles: 774445442 heartbeat IPC: 0.0913536 cumulative IPC: 0.0907899 (Simulation time: 0 hr 21 min 59 sec) 
Heartbeat CPU 0 instructions: 90000001 cycles: 884442138 heartbeat IPC: 0.0909118 cumulative IPC: 0.0908051 (Simulation time: 0 hr 24 min 56 sec) 
Heartbeat CPU 0 instructions: 100000001 cycles: 996098482 heartbeat IPC: 0.0895605 cumulative IPC: 0.0906651 (Simulation time: 0 hr 27 min 59 sec) 
Heartbeat CPU 0 instructions: 110000002 cycles: 1100562971 heartbeat IPC: 0.0957263 cumulative IPC: 0.091147 (Simulation time: 0 hr 30 min 49 sec) 
Finished CPU 0 instructions: 100000001 cycles: 1097128598 cumulative IPC: 0.091147 (Simulation time: 0 hr 30 min 49 sec) 

ChampSim completed all CPUs

Region of Interest Statistics

CPU 0 cumulative IPC: 0.091147 instructions: 100000001 cycles: 1097128598
cpu0_DTLB TOTAL     ACCESS:   23847397  HIT:   14578865  MISS:    9268532
cpu0_DTLB LOAD      ACCESS:   20116064  HIT:   11375287  MISS:    8740777
cpu0_DTLB RFO       ACCESS:    3731333  HIT:    3203578  MISS:     527755
cpu0_DTLB PREFETCH  ACCESS:          0  HIT:          0  MISS:          0
cpu0_DTLB WRITEBACK ACCESS:          0  HIT:          0  MISS:          0
cpu0_DTLB TRANSLATION ACCESS:          0  HIT:          0  MISS:          0
cpu0_DTLB PREFETCH  REQUESTED:          0  ISSUED:          0  USEFUL:          0  USELESS:          0
cpu0_DTLB AVERAGE MISS LATENCY: 12.8377 cycles
cpu0_ITLB TOTAL     ACCESS:   12708921  HIT:   12708921  MISS:          0
cpu0_ITLB LOAD      ACCESS:   12708921  HIT:   12708921  MISS:          0
cpu0_ITLB RFO       ACCESS:          0  HIT:          0  MISS:          0
cpu0_ITLB PREFETCH  ACCESS:          0  HIT:          0  MISS:          0
cpu0_ITLB WRITEBACK ACCESS:          0  HIT:          0  MISS:          0
cpu0_ITLB TRANSLATION ACCESS:          0  HIT:          0  MISS:          0
cpu0_ITLB PREFETCH  REQUESTED:          0  ISSUED:          0  USEFUL:          0  USELESS:          0
cpu0_ITLB AVERAGE MISS LATENCY: -nan cycles
cpu0_L1I TOTAL     ACCESS:         52  HIT:         52  MISS:          0
cpu0_L1I LOAD      ACCESS:         52  HIT:         52  MISS:          0
cpu0_L1I RFO       ACCESS:          0  HIT:          0  MISS:          0
cpu0_L1I PREFETCH  ACCESS:          0  HIT:          0  MISS:          0
cpu0_L1I WRITEBACK ACCESS:          0  HIT:          0  MISS:          0
cpu0_L1I TRANSLATION ACCESS:          0  HIT:          0  MISS:          0
cpu0_L1I PREFETCH  REQUESTED:          0  ISSUED:          0  USEFUL:          0  USELESS:          0
cpu0_L1I AVERAGE MISS LATENCY: -nan cycles
cpu0_STLB TOTAL     ACCESS:    9268532  HIT:    7944978  MISS:    1323554
cpu0_STLB LOAD      ACCESS:    8740777  HIT:    7428329  MISS:    1312448
cpu0_STLB RFO       ACCESS:     527755  HIT:     516649  MISS:      11106
cpu0_STLB PREFETCH  ACCESS:          0  HIT:          0  MISS:          0
cpu0_STLB WRITEBACK ACCESS:          0  HIT:          0  MISS:          0
cpu0_STLB TRANSLATION ACCESS:          0  HIT:          0  MISS:          0
cpu0_STLB PREFETCH  REQUESTED:          0  ISSUED:          0  USEFUL:          0  USELESS:          0
cpu0_STLB AVERAGE MISS LATENCY: 26.7995 cycles
cpu0_L1D TOTAL     ACCESS:   28047609  HIT:   16270424  MISS:   11777185
cpu0_L1D LOAD      ACCESS:   21749301  HIT:   10446205  MISS:   11303096
cpu0_L1D RFO       ACCESS:    4979305  HIT:    4680506  MISS:     298799
cpu0_L1D PREFETCH  ACCESS:          0  HIT:          0  MISS:          0
cpu0_L1D WRITEBACK ACCESS:          0  HIT:          0  MISS:          0
cpu0_L1D TRANSLATION ACCESS:    1319003  HIT:    1143713  MISS:     175290
cpu0_L1D PREFETCH  REQUESTED:          0  ISSUED:          0  USEFUL:          0  USELESS:          0
cpu0_L1D AVERAGE MISS LATENCY: 259.971 cycles
cpu0_L2C TOTAL     ACCESS:   14258488  HIT:    5810970  MISS:    8447518
cpu0_L2C LOAD      ACCESS:   11302640  HIT:    3070158  MISS:    8232482
cpu0_L2C RFO       ACCESS:     298784  HIT:     121209  MISS:     177575
cpu0_L2C PREFETCH  ACCESS:          0  HIT:          0  MISS:          0
cpu0_L2C WRITEBACK ACCESS:    2481774  HIT:    2481173  MISS:        601
cpu0_L2C TRANSLATION ACCESS:     175290  HIT:     138430  MISS:      36860
cpu0_L2C PREFETCH  REQUESTED:          0  ISSUED:          0  USEFUL:          0  USELESS:          0
cpu0_L2C AVERAGE MISS LATENCY: 346.998 cycles
LLC TOTAL     ACCESS:   10352001  HIT:    3757183  MISS:    6594818
LLC LOAD      ACCESS:    8232482  HIT:    2631292  MISS:    5601190
LLC RFO       ACCESS:     177575  HIT:      81736  MISS:      95839
LLC PREFETCH  ACCESS:          0  HIT:          0  MISS:          0
LLC WRITEBACK ACCESS:    1905084  HIT:    1041060  MISS:     864024
LLC TRANSLATION ACCESS:      36860  HIT:       3095  MISS:      33765
LLC PREFETCH  REQUESTED:          0  ISSUED:          0  USEFUL:          0  USELESS:          0
LLC AVERAGE MISS LATENCY: 417.584 cycles
OPTgen accesses: 141989
OPTgen hits: 53988
OPTgen hit rate: 38.0227



DRAM Statistics
 CHANNEL 0
 RQ ROW_BUFFER_HIT:      14723  ROW_BUFFER_MISS:    5714982
 DBUS AVG_CONGESTED_CYCLE:    3.95788
 WQ ROW_BUFFER_HIT:      29575  ROW_BUFFER_MISS:    1381092  FULL:          0


CPU 0 Branch Prediction Accuracy: 85.442% MPKI: 39.3219 Average ROB Occupancy at Mispredict: 18.8555
Branch type MPKI
BRANCH_DIRECT_JUMP: 0
BRANCH_INDIRECT: 0
BRANCH_CONDITIONAL: 39.3219
BRANCH_DIRECT_CALL: 0
BRANCH_INDIRECT_CALL: 0
BRANCH_RETURN: 0

