
*** ChampSim Multicore Out-of-Order Simulator ***

Warmup Instructions: 10000000
Simulation Instructions: 100000000
Number of CPUs: 1
Off-chip DRAM Size: 4 GiB Channels: 1 Width: 64-bit Data Rate: 3200 MT/s

VirtualMemory physical capacity: 8588881920 num_ppages: 2096895
VirtualMemory page size: 4096 log2_page_size: 12

CPU 0 runs /datasets/cs240c-wi22-a00-public/data/Assignment2/gcc_13B.trace.xz
CPU 0 Bimodal branch predictor
Basic BTB sets: 1024 ways: 8 indirect buffer size: 4096 RAS size: 64
Initialize Hawkeye state
Heartbeat CPU 0 instructions: 10000003 cycles: 2971450 heartbeat IPC: 3.36536 cumulative IPC: 3.36536 (Simulation time: 0 hr 0 min 45 sec) 

Warmup complete CPU 0 instructions: 10000003 cycles: 2971450 (Simulation time: 0 hr 0 min 45 sec) 

Heartbeat CPU 0 instructions: 20000003 cycles: 52073116 heartbeat IPC: 0.203659 cumulative IPC: 0.203659 (Simulation time: 0 hr 2 min 57 sec) 
Heartbeat CPU 0 instructions: 30000002 cycles: 104388184 heartbeat IPC: 0.19115 cumulative IPC: 0.197206 (Simulation time: 0 hr 5 min 18 sec) 
Heartbeat CPU 0 instructions: 40000004 cycles: 140575636 heartbeat IPC: 0.276339 cumulative IPC: 0.218017 (Simulation time: 0 hr 7 min 26 sec) 
Heartbeat CPU 0 instructions: 50000002 cycles: 158643019 heartbeat IPC: 0.553483 cumulative IPC: 0.256951 (Simulation time: 0 hr 8 min 15 sec) 
Heartbeat CPU 0 instructions: 60000003 cycles: 176655613 heartbeat IPC: 0.555167 cumulative IPC: 0.287879 (Simulation time: 0 hr 9 min 3 sec) 
Heartbeat CPU 0 instructions: 70000000 cycles: 194764483 heartbeat IPC: 0.552215 cumulative IPC: 0.312837 (Simulation time: 0 hr 9 min 51 sec) 
Heartbeat CPU 0 instructions: 80000002 cycles: 212627521 heartbeat IPC: 0.559815 cumulative IPC: 0.33388 (Simulation time: 0 hr 10 min 39 sec) 
Heartbeat CPU 0 instructions: 90000000 cycles: 230741577 heartbeat IPC: 0.552057 cumulative IPC: 0.351231 (Simulation time: 0 hr 11 min 25 sec) 
Heartbeat CPU 0 instructions: 100000000 cycles: 248326510 heartbeat IPC: 0.568669 cumulative IPC: 0.366815 (Simulation time: 0 hr 12 min 12 sec) 
Heartbeat CPU 0 instructions: 110000002 cycles: 272986653 heartbeat IPC: 0.405513 cumulative IPC: 0.37035 (Simulation time: 0 hr 13 min 10 sec) 
Finished CPU 0 instructions: 100000004 cycles: 270015204 cumulative IPC: 0.37035 (Simulation time: 0 hr 13 min 10 sec) 

ChampSim completed all CPUs

Region of Interest Statistics

CPU 0 cumulative IPC: 0.37035 instructions: 100000004 cycles: 270015204
cpu0_DTLB TOTAL     ACCESS:   19467139  HIT:   19364952  MISS:     102187
cpu0_DTLB LOAD      ACCESS:   14030165  HIT:   13943067  MISS:      87098
cpu0_DTLB RFO       ACCESS:    5436974  HIT:    5421885  MISS:      15089
cpu0_DTLB PREFETCH  ACCESS:          0  HIT:          0  MISS:          0
cpu0_DTLB WRITEBACK ACCESS:          0  HIT:          0  MISS:          0
cpu0_DTLB TRANSLATION ACCESS:          0  HIT:          0  MISS:          0
cpu0_DTLB PREFETCH  REQUESTED:          0  ISSUED:          0  USEFUL:          0  USELESS:          0
cpu0_DTLB AVERAGE MISS LATENCY: 28.6177 cycles
cpu0_ITLB TOTAL     ACCESS:   10352355  HIT:   10352294  MISS:         61
cpu0_ITLB LOAD      ACCESS:   10352355  HIT:   10352294  MISS:         61
cpu0_ITLB RFO       ACCESS:          0  HIT:          0  MISS:          0
cpu0_ITLB PREFETCH  ACCESS:          0  HIT:          0  MISS:          0
cpu0_ITLB WRITEBACK ACCESS:          0  HIT:          0  MISS:          0
cpu0_ITLB TRANSLATION ACCESS:          0  HIT:          0  MISS:          0
cpu0_ITLB PREFETCH  REQUESTED:          0  ISSUED:          0  USEFUL:          0  USELESS:          0
cpu0_ITLB AVERAGE MISS LATENCY: 143.836 cycles
cpu0_L1I TOTAL     ACCESS:    6565305  HIT:    6564933  MISS:        372
cpu0_L1I LOAD      ACCESS:    6565305  HIT:    6564933  MISS:        372
cpu0_L1I RFO       ACCESS:          0  HIT:          0  MISS:          0
cpu0_L1I PREFETCH  ACCESS:          0  HIT:          0  MISS:          0
cpu0_L1I WRITEBACK ACCESS:          0  HIT:          0  MISS:          0
cpu0_L1I TRANSLATION ACCESS:          0  HIT:          0  MISS:          0
cpu0_L1I PREFETCH  REQUESTED:          0  ISSUED:          0  USEFUL:          0  USELESS:          0
cpu0_L1I AVERAGE MISS LATENCY: 170.212 cycles
cpu0_STLB TOTAL     ACCESS:     102248  HIT:      33348  MISS:      68900
cpu0_STLB LOAD      ACCESS:      87159  HIT:      30279  MISS:      56880
cpu0_STLB RFO       ACCESS:      15089  HIT:       3069  MISS:      12020
cpu0_STLB PREFETCH  ACCESS:          0  HIT:          0  MISS:          0
cpu0_STLB WRITEBACK ACCESS:          0  HIT:          0  MISS:          0
cpu0_STLB TRANSLATION ACCESS:          0  HIT:          0  MISS:          0
cpu0_STLB PREFETCH  REQUESTED:          0  ISSUED:          0  USEFUL:          0  USELESS:          0
cpu0_STLB AVERAGE MISS LATENCY: 29.2087 cycles
cpu0_L1D TOTAL     ACCESS:   26276145  HIT:   24732385  MISS:    1543760
cpu0_L1D LOAD      ACCESS:   12786068  HIT:   11519322  MISS:    1266746
cpu0_L1D RFO       ACCESS:   13421372  HIT:   13145430  MISS:     275942
cpu0_L1D PREFETCH  ACCESS:          0  HIT:          0  MISS:          0
cpu0_L1D WRITEBACK ACCESS:          0  HIT:          0  MISS:          0
cpu0_L1D TRANSLATION ACCESS:      68705  HIT:      67633  MISS:       1072
cpu0_L1D PREFETCH  REQUESTED:          0  ISSUED:          0  USEFUL:          0  USELESS:          0
cpu0_L1D AVERAGE MISS LATENCY: 261.546 cycles
cpu0_L2C TOTAL     ACCESS:    1956543  HIT:     461489  MISS:    1495054
cpu0_L2C LOAD      ACCESS:    1267118  HIT:      46448  MISS:    1220670
cpu0_L2C RFO       ACCESS:     275942  HIT:       1818  MISS:     274124
cpu0_L2C PREFETCH  ACCESS:          0  HIT:          0  MISS:          0
cpu0_L2C WRITEBACK ACCESS:     412411  HIT:     412360  MISS:         51
cpu0_L2C TRANSLATION ACCESS:       1072  HIT:        863  MISS:        209
cpu0_L2C PREFETCH  REQUESTED:          0  ISSUED:          0  USEFUL:          0  USELESS:          0
cpu0_L2C AVERAGE MISS LATENCY: 258.715 cycles
LLC TOTAL     ACCESS:    1905123  HIT:     275695  MISS:    1629428
LLC LOAD      ACCESS:    1220670  HIT:     143859  MISS:    1076811
LLC RFO       ACCESS:     274124  HIT:      28235  MISS:     245889
LLC PREFETCH  ACCESS:          0  HIT:          0  MISS:          0
LLC WRITEBACK ACCESS:     410120  HIT:     103481  MISS:     306639
LLC TRANSLATION ACCESS:        209  HIT:        120  MISS:         89
LLC PREFETCH  REQUESTED:          0  ISSUED:          0  USEFUL:          0  USELESS:          0
LLC AVERAGE MISS LATENCY: 218.106 cycles
OPTgen accesses: 30444
OPTgen hits: 4738
OPTgen hit rate: 15.563



DRAM Statistics
 CHANNEL 0
 RQ ROW_BUFFER_HIT:     208657  ROW_BUFFER_MISS:    1114054
 DBUS AVG_CONGESTED_CYCLE:    3.93991
 WQ ROW_BUFFER_HIT:      42386  ROW_BUFFER_MISS:     348802  FULL:      20281


CPU 0 Branch Prediction Accuracy: 87.437% MPKI: 28.6507 Average ROB Occupancy at Mispredict: 19.9351
Branch type MPKI
BRANCH_DIRECT_JUMP: 0.0008
BRANCH_INDIRECT: 0.00403
BRANCH_CONDITIONAL: 28.6428
BRANCH_DIRECT_CALL: 0.00114
BRANCH_INDIRECT_CALL: 0.0008
BRANCH_RETURN: 0.00114

