
*** ChampSim Multicore Out-of-Order Simulator ***

Warmup Instructions: 10000000
Simulation Instructions: 100000000
Number of CPUs: 1
Off-chip DRAM Size: 4 GiB Channels: 1 Width: 64-bit Data Rate: 3200 MT/s

VirtualMemory physical capacity: 8588881920 num_ppages: 2096895
VirtualMemory page size: 4096 log2_page_size: 12

CPU 0 runs /datasets/cs240c-wi22-a00-public/data/Assignment2/sphinx3_2520B.trace.xz
CPU 0 Bimodal branch predictor
Basic BTB sets: 1024 ways: 8 indirect buffer size: 4096 RAS size: 64
Initialize Hawkeye state
Heartbeat CPU 0 instructions: 10000000 cycles: 2589700 heartbeat IPC: 3.86145 cumulative IPC: 3.86145 (Simulation time: 0 hr 0 min 26 sec) 

Warmup complete CPU 0 instructions: 10000004 cycles: 2589701 (Simulation time: 0 hr 0 min 26 sec) 

Heartbeat CPU 0 instructions: 20000002 cycles: 9271506 heartbeat IPC: 1.4966 cumulative IPC: 1.4966 (Simulation time: 0 hr 1 min 10 sec) 
Heartbeat CPU 0 instructions: 30000000 cycles: 15944119 heartbeat IPC: 1.49866 cumulative IPC: 1.49763 (Simulation time: 0 hr 1 min 52 sec) 
Heartbeat CPU 0 instructions: 40000001 cycles: 22487115 heartbeat IPC: 1.52835 cumulative IPC: 1.50773 (Simulation time: 0 hr 2 min 34 sec) 
Heartbeat CPU 0 instructions: 50000002 cycles: 29416112 heartbeat IPC: 1.44321 cumulative IPC: 1.49107 (Simulation time: 0 hr 3 min 18 sec) 
Heartbeat CPU 0 instructions: 60000001 cycles: 35885733 heartbeat IPC: 1.54569 cumulative IPC: 1.50168 (Simulation time: 0 hr 3 min 59 sec) 
Heartbeat CPU 0 instructions: 70000004 cycles: 42257334 heartbeat IPC: 1.56946 cumulative IPC: 1.51257 (Simulation time: 0 hr 4 min 43 sec) 
Heartbeat CPU 0 instructions: 80000000 cycles: 48770169 heartbeat IPC: 1.53543 cumulative IPC: 1.51579 (Simulation time: 0 hr 5 min 30 sec) 
Heartbeat CPU 0 instructions: 90000000 cycles: 55106920 heartbeat IPC: 1.5781 cumulative IPC: 1.52331 (Simulation time: 0 hr 6 min 15 sec) 
Heartbeat CPU 0 instructions: 100000002 cycles: 61724163 heartbeat IPC: 1.5112 cumulative IPC: 1.52196 (Simulation time: 0 hr 7 min 3 sec) 
Heartbeat CPU 0 instructions: 110000004 cycles: 70451150 heartbeat IPC: 1.14587 cumulative IPC: 1.47359 (Simulation time: 0 hr 7 min 57 sec) 
Finished CPU 0 instructions: 100000000 cycles: 67861449 cumulative IPC: 1.47359 (Simulation time: 0 hr 7 min 57 sec) 

ChampSim completed all CPUs

Region of Interest Statistics

CPU 0 cumulative IPC: 1.47359 instructions: 100000000 cycles: 67861449
cpu0_DTLB TOTAL     ACCESS:   16058726  HIT:   16002806  MISS:      55920
cpu0_DTLB LOAD      ACCESS:   15016787  HIT:   14964220  MISS:      52567
cpu0_DTLB RFO       ACCESS:    1041939  HIT:    1038586  MISS:       3353
cpu0_DTLB PREFETCH  ACCESS:          0  HIT:          0  MISS:          0
cpu0_DTLB WRITEBACK ACCESS:          0  HIT:          0  MISS:          0
cpu0_DTLB TRANSLATION ACCESS:          0  HIT:          0  MISS:          0
cpu0_DTLB PREFETCH  REQUESTED:          0  ISSUED:          0  USEFUL:          0  USELESS:          0
cpu0_DTLB AVERAGE MISS LATENCY: 11.4453 cycles
cpu0_ITLB TOTAL     ACCESS:    9341126  HIT:    9341084  MISS:         42
cpu0_ITLB LOAD      ACCESS:    9341126  HIT:    9341084  MISS:         42
cpu0_ITLB RFO       ACCESS:          0  HIT:          0  MISS:          0
cpu0_ITLB PREFETCH  ACCESS:          0  HIT:          0  MISS:          0
cpu0_ITLB WRITEBACK ACCESS:          0  HIT:          0  MISS:          0
cpu0_ITLB TRANSLATION ACCESS:          0  HIT:          0  MISS:          0
cpu0_ITLB PREFETCH  REQUESTED:          0  ISSUED:          0  USEFUL:          0  USELESS:          0
cpu0_ITLB AVERAGE MISS LATENCY: 151.452 cycles
cpu0_L1I TOTAL     ACCESS:     267744  HIT:     266456  MISS:       1288
cpu0_L1I LOAD      ACCESS:     267744  HIT:     266456  MISS:       1288
cpu0_L1I RFO       ACCESS:          0  HIT:          0  MISS:          0
cpu0_L1I PREFETCH  ACCESS:          0  HIT:          0  MISS:          0
cpu0_L1I WRITEBACK ACCESS:          0  HIT:          0  MISS:          0
cpu0_L1I TRANSLATION ACCESS:          0  HIT:          0  MISS:          0
cpu0_L1I PREFETCH  REQUESTED:          0  ISSUED:          0  USEFUL:          0  USELESS:          0
cpu0_L1I AVERAGE MISS LATENCY: 136.797 cycles
cpu0_STLB TOTAL     ACCESS:      55962  HIT:      51155  MISS:       4807
cpu0_STLB LOAD      ACCESS:      52609  HIT:      47935  MISS:       4674
cpu0_STLB RFO       ACCESS:       3353  HIT:       3220  MISS:        133
cpu0_STLB PREFETCH  ACCESS:          0  HIT:          0  MISS:          0
cpu0_STLB WRITEBACK ACCESS:          0  HIT:          0  MISS:          0
cpu0_STLB TRANSLATION ACCESS:          0  HIT:          0  MISS:          0
cpu0_STLB PREFETCH  REQUESTED:          0  ISSUED:          0  USEFUL:          0  USELESS:          0
cpu0_STLB AVERAGE MISS LATENCY: 29.1745 cycles
cpu0_L1D TOTAL     ACCESS:   11462796  HIT:   10123407  MISS:    1339389
cpu0_L1D LOAD      ACCESS:   10116569  HIT:    8902830  MISS:    1213739
cpu0_L1D RFO       ACCESS:    1341700  HIT:    1216164  MISS:     125536
cpu0_L1D PREFETCH  ACCESS:          0  HIT:          0  MISS:          0
cpu0_L1D WRITEBACK ACCESS:          0  HIT:          0  MISS:          0
cpu0_L1D TRANSLATION ACCESS:       4527  HIT:       4413  MISS:        114
cpu0_L1D PREFETCH  REQUESTED:          0  ISSUED:          0  USEFUL:          0  USELESS:          0
cpu0_L1D AVERAGE MISS LATENCY: 91.4298 cycles
cpu0_L2C TOTAL     ACCESS:    1472890  HIT:     251127  MISS:    1221763
cpu0_L2C LOAD      ACCESS:    1215026  HIT:     113620  MISS:    1101406
cpu0_L2C RFO       ACCESS:     125536  HIT:       5426  MISS:     120110
cpu0_L2C PREFETCH  ACCESS:          0  HIT:          0  MISS:          0
cpu0_L2C WRITEBACK ACCESS:     132214  HIT:     132052  MISS:        162
cpu0_L2C TRANSLATION ACCESS:        114  HIT:         29  MISS:         85
cpu0_L2C PREFETCH  REQUESTED:          0  ISSUED:          0  USEFUL:          0  USELESS:          0
cpu0_L2C AVERAGE MISS LATENCY: 88.284 cycles
LLC TOTAL     ACCESS:    1348256  HIT:     867130  MISS:     481126
LLC LOAD      ACCESS:    1101406  HIT:     681387  MISS:     420019
LLC RFO       ACCESS:     120110  HIT:      75570  MISS:      44540
LLC PREFETCH  ACCESS:          0  HIT:          0  MISS:          0
LLC WRITEBACK ACCESS:     126655  HIT:     110156  MISS:      16499
LLC TRANSLATION ACCESS:         85  HIT:         17  MISS:         68
LLC PREFETCH  REQUESTED:          0  ISSUED:          0  USEFUL:          0  USELESS:          0
LLC AVERAGE MISS LATENCY: 170.86 cycles
OPTgen accesses: 21070
OPTgen hits: 15541
OPTgen hit rate: 73.7589



DRAM Statistics
 CHANNEL 0
 RQ ROW_BUFFER_HIT:     121881  ROW_BUFFER_MISS:     341009
 DBUS AVG_CONGESTED_CYCLE:    3.90463
 WQ ROW_BUFFER_HIT:      21431  ROW_BUFFER_MISS:      30975  FULL:         37


CPU 0 Branch Prediction Accuracy: 93.1904% MPKI: 5.9173 Average ROB Occupancy at Mispredict: 199.71
Branch type MPKI
BRANCH_DIRECT_JUMP: 0.00106
BRANCH_INDIRECT: 0
BRANCH_CONDITIONAL: 5.91482
BRANCH_DIRECT_CALL: 0.00069
BRANCH_INDIRECT_CALL: 3e-05
BRANCH_RETURN: 0.0007

