
*** ChampSim Multicore Out-of-Order Simulator ***

Warmup Instructions: 10000000
Simulation Instructions: 100000000
Number of CPUs: 1
Off-chip DRAM Size: 4 GiB Channels: 1 Width: 64-bit Data Rate: 3200 MT/s

VirtualMemory physical capacity: 8588881920 num_ppages: 2096895
VirtualMemory page size: 4096 log2_page_size: 12

CPU 0 runs /datasets/cs240c-wi22-a00-public/data/Assignment2/sphinx3_2520B.trace.xz
CPU 0 Bimodal branch predictor
Basic BTB sets: 1024 ways: 8 indirect buffer size: 4096 RAS size: 64
Initialize Hawkeye state
Heartbeat CPU 0 instructions: 10000000 cycles: 2589703 heartbeat IPC: 3.86145 cumulative IPC: 3.86145 (Simulation time: 0 hr 0 min 31 sec) 

Warmup complete CPU 0 instructions: 10000004 cycles: 2589704 (Simulation time: 0 hr 0 min 31 sec) 

Heartbeat CPU 0 instructions: 20000002 cycles: 9335576 heartbeat IPC: 1.48239 cumulative IPC: 1.48239 (Simulation time: 0 hr 1 min 20 sec) 
Heartbeat CPU 0 instructions: 30000000 cycles: 16209517 heartbeat IPC: 1.45477 cumulative IPC: 1.46845 (Simulation time: 0 hr 2 min 9 sec) 
Heartbeat CPU 0 instructions: 40000001 cycles: 22952095 heartbeat IPC: 1.48311 cumulative IPC: 1.4733 (Simulation time: 0 hr 2 min 58 sec) 
Heartbeat CPU 0 instructions: 50000004 cycles: 30079076 heartbeat IPC: 1.40312 cumulative IPC: 1.45511 (Simulation time: 0 hr 3 min 49 sec) 
Heartbeat CPU 0 instructions: 60000001 cycles: 36825981 heartbeat IPC: 1.48216 cumulative IPC: 1.46044 (Simulation time: 0 hr 4 min 38 sec) 
Heartbeat CPU 0 instructions: 70000001 cycles: 43328669 heartbeat IPC: 1.53783 cumulative IPC: 1.47279 (Simulation time: 0 hr 5 min 27 sec) 
Heartbeat CPU 0 instructions: 80000000 cycles: 49897150 heartbeat IPC: 1.52242 cumulative IPC: 1.47968 (Simulation time: 0 hr 6 min 17 sec) 
Heartbeat CPU 0 instructions: 90000003 cycles: 56456087 heartbeat IPC: 1.52464 cumulative IPC: 1.48516 (Simulation time: 0 hr 7 min 7 sec) 
Heartbeat CPU 0 instructions: 100000000 cycles: 63073773 heartbeat IPC: 1.5111 cumulative IPC: 1.488 (Simulation time: 0 hr 7 min 56 sec) 
Heartbeat CPU 0 instructions: 110000004 cycles: 72010222 heartbeat IPC: 1.11901 cumulative IPC: 1.4405 (Simulation time: 0 hr 8 min 53 sec) 
Finished CPU 0 instructions: 100000000 cycles: 69420518 cumulative IPC: 1.4405 (Simulation time: 0 hr 8 min 53 sec) 

ChampSim completed all CPUs

Region of Interest Statistics

CPU 0 cumulative IPC: 1.4405 instructions: 100000000 cycles: 69420518
cpu0_DTLB TOTAL     ACCESS:   16047741  HIT:   15991839  MISS:      55902
cpu0_DTLB LOAD      ACCESS:   15004348  HIT:   14951799  MISS:      52549
cpu0_DTLB RFO       ACCESS:    1043393  HIT:    1040040  MISS:       3353
cpu0_DTLB PREFETCH  ACCESS:          0  HIT:          0  MISS:          0
cpu0_DTLB WRITEBACK ACCESS:          0  HIT:          0  MISS:          0
cpu0_DTLB TRANSLATION ACCESS:          0  HIT:          0  MISS:          0
cpu0_DTLB PREFETCH  REQUESTED:          0  ISSUED:          0  USEFUL:          0  USELESS:          0
cpu0_DTLB AVERAGE MISS LATENCY: 11.4388 cycles
cpu0_ITLB TOTAL     ACCESS:    9321128  HIT:    9321086  MISS:         42
cpu0_ITLB LOAD      ACCESS:    9321128  HIT:    9321086  MISS:         42
cpu0_ITLB RFO       ACCESS:          0  HIT:          0  MISS:          0
cpu0_ITLB PREFETCH  ACCESS:          0  HIT:          0  MISS:          0
cpu0_ITLB WRITEBACK ACCESS:          0  HIT:          0  MISS:          0
cpu0_ITLB TRANSLATION ACCESS:          0  HIT:          0  MISS:          0
cpu0_ITLB PREFETCH  REQUESTED:          0  ISSUED:          0  USEFUL:          0  USELESS:          0
cpu0_ITLB AVERAGE MISS LATENCY: 151.429 cycles
cpu0_L1I TOTAL     ACCESS:     267766  HIT:     266470  MISS:       1296
cpu0_L1I LOAD      ACCESS:     267766  HIT:     266470  MISS:       1296
cpu0_L1I RFO       ACCESS:          0  HIT:          0  MISS:          0
cpu0_L1I PREFETCH  ACCESS:          0  HIT:          0  MISS:          0
cpu0_L1I WRITEBACK ACCESS:          0  HIT:          0  MISS:          0
cpu0_L1I TRANSLATION ACCESS:          0  HIT:          0  MISS:          0
cpu0_L1I PREFETCH  REQUESTED:          0  ISSUED:          0  USEFUL:          0  USELESS:          0
cpu0_L1I AVERAGE MISS LATENCY: 131.691 cycles
cpu0_STLB TOTAL     ACCESS:      55944  HIT:      51137  MISS:       4807
cpu0_STLB LOAD      ACCESS:      52591  HIT:      47916  MISS:       4675
cpu0_STLB RFO       ACCESS:       3353  HIT:       3221  MISS:        132
cpu0_STLB PREFETCH  ACCESS:          0  HIT:          0  MISS:          0
cpu0_STLB WRITEBACK ACCESS:          0  HIT:          0  MISS:          0
cpu0_STLB TRANSLATION ACCESS:          0  HIT:          0  MISS:          0
cpu0_STLB PREFETCH  REQUESTED:          0  ISSUED:          0  USEFUL:          0  USELESS:          0
cpu0_STLB AVERAGE MISS LATENCY: 29.0934 cycles
cpu0_L1D TOTAL     ACCESS:   11397129  HIT:   10057747  MISS:    1339382
cpu0_L1D LOAD      ACCESS:   10053097  HIT:    8839365  MISS:    1213732
cpu0_L1D RFO       ACCESS:    1339504  HIT:    1213968  MISS:     125536
cpu0_L1D PREFETCH  ACCESS:          0  HIT:          0  MISS:          0
cpu0_L1D WRITEBACK ACCESS:          0  HIT:          0  MISS:          0
cpu0_L1D TRANSLATION ACCESS:       4528  HIT:       4414  MISS:        114
cpu0_L1D PREFETCH  REQUESTED:          0  ISSUED:          0  USEFUL:          0  USELESS:          0
cpu0_L1D AVERAGE MISS LATENCY: 95.4134 cycles
cpu0_L2C TOTAL     ACCESS:    1472888  HIT:     251111  MISS:    1221777
cpu0_L2C LOAD      ACCESS:    1215027  HIT:     113607  MISS:    1101420
cpu0_L2C RFO       ACCESS:     125536  HIT:       5426  MISS:     120110
cpu0_L2C PREFETCH  ACCESS:          0  HIT:          0  MISS:          0
cpu0_L2C WRITEBACK ACCESS:     132211  HIT:     132049  MISS:        162
cpu0_L2C TRANSLATION ACCESS:        114  HIT:         29  MISS:         85
cpu0_L2C PREFETCH  REQUESTED:          0  ISSUED:          0  USEFUL:          0  USELESS:          0
cpu0_L2C AVERAGE MISS LATENCY: 92.6445 cycles
LLC TOTAL     ACCESS:    1348267  HIT:     839753  MISS:     508514
LLC LOAD      ACCESS:    1101420  HIT:     654907  MISS:     446513
LLC RFO       ACCESS:     120110  HIT:      74970  MISS:      45140
LLC PREFETCH  ACCESS:          0  HIT:          0  MISS:          0
LLC WRITEBACK ACCESS:     126652  HIT:     109855  MISS:      16797
LLC TRANSLATION ACCESS:         85  HIT:         21  MISS:         64
LLC PREFETCH  REQUESTED:          0  ISSUED:          0  USEFUL:          0  USELESS:          0
LLC AVERAGE MISS LATENCY: 172.137 cycles
OPTgen accesses: 21070
OPTgen hits: 15544
OPTgen hit rate: 73.7731



DRAM Statistics
 CHANNEL 0
 RQ ROW_BUFFER_HIT:     123396  ROW_BUFFER_MISS:     366218
 DBUS AVG_CONGESTED_CYCLE:    3.90424
 WQ ROW_BUFFER_HIT:      23091  ROW_BUFFER_MISS:      30313  FULL:       1888


CPU 0 Branch Prediction Accuracy: 93.1904% MPKI: 5.9173 Average ROB Occupancy at Mispredict: 201.137
Branch type MPKI
BRANCH_DIRECT_JUMP: 0.00106
BRANCH_INDIRECT: 0
BRANCH_CONDITIONAL: 5.91482
BRANCH_DIRECT_CALL: 0.00069
BRANCH_INDIRECT_CALL: 3e-05
BRANCH_RETURN: 0.0007

