
*** ChampSim Multicore Out-of-Order Simulator ***

Warmup Instructions: 10000000
Simulation Instructions: 100000000
Number of CPUs: 1
Off-chip DRAM Size: 4 GiB Channels: 1 Width: 64-bit Data Rate: 3200 MT/s

VirtualMemory physical capacity: 8588881920 num_ppages: 2096895
VirtualMemory page size: 4096 log2_page_size: 12

CPU 0 runs /datasets/cs240c-wi22-a00-public/data/Assignment2/bzip2_259B.trace.xz
CPU 0 Bimodal branch predictor
Basic BTB sets: 1024 ways: 8 indirect buffer size: 4096 RAS size: 64
Initialize Hawkeye state
Heartbeat CPU 0 instructions: 10000002 cycles: 2535454 heartbeat IPC: 3.94407 cumulative IPC: 3.94407 (Simulation time: 0 hr 0 min 30 sec) 

Warmup complete CPU 0 instructions: 10000002 cycles: 2535454 (Simulation time: 0 hr 0 min 30 sec) 

Heartbeat CPU 0 instructions: 20000003 cycles: 9065771 heartbeat IPC: 1.53132 cumulative IPC: 1.53132 (Simulation time: 0 hr 1 min 35 sec) 
Heartbeat CPU 0 instructions: 30000002 cycles: 14624736 heartbeat IPC: 1.7989 cumulative IPC: 1.65436 (Simulation time: 0 hr 2 min 29 sec) 
Heartbeat CPU 0 instructions: 40000003 cycles: 21403630 heartbeat IPC: 1.47517 cumulative IPC: 1.58998 (Simulation time: 0 hr 3 min 13 sec) 
Heartbeat CPU 0 instructions: 50000003 cycles: 29585117 heartbeat IPC: 1.22227 cumulative IPC: 1.47876 (Simulation time: 0 hr 3 min 44 sec) 
Heartbeat CPU 0 instructions: 60000001 cycles: 37429400 heartbeat IPC: 1.27481 cumulative IPC: 1.43291 (Simulation time: 0 hr 4 min 15 sec) 
Heartbeat CPU 0 instructions: 70000004 cycles: 43492555 heartbeat IPC: 1.64931 cumulative IPC: 1.46495 (Simulation time: 0 hr 5 min 14 sec) 
Heartbeat CPU 0 instructions: 80000004 cycles: 50362957 heartbeat IPC: 1.45552 cumulative IPC: 1.46359 (Simulation time: 0 hr 6 min 17 sec) 
Heartbeat CPU 0 instructions: 90000001 cycles: 56705767 heartbeat IPC: 1.57659 cumulative IPC: 1.47682 (Simulation time: 0 hr 7 min 7 sec) 
Heartbeat CPU 0 instructions: 100000000 cycles: 65102624 heartbeat IPC: 1.19092 cumulative IPC: 1.43845 (Simulation time: 0 hr 7 min 39 sec) 
Heartbeat CPU 0 instructions: 110000000 cycles: 73076710 heartbeat IPC: 1.25406 cumulative IPC: 1.41761 (Simulation time: 0 hr 8 min 11 sec) 
Finished CPU 0 instructions: 100000003 cycles: 70541261 cumulative IPC: 1.41761 (Simulation time: 0 hr 8 min 11 sec) 

ChampSim completed all CPUs

Region of Interest Statistics

CPU 0 cumulative IPC: 1.41761 instructions: 100000003 cycles: 70541261
cpu0_DTLB TOTAL     ACCESS:   18629755  HIT:   17968990  MISS:     660765
cpu0_DTLB LOAD      ACCESS:    9575521  HIT:    8918649  MISS:     656872
cpu0_DTLB RFO       ACCESS:    9054234  HIT:    9050341  MISS:       3893
cpu0_DTLB PREFETCH  ACCESS:          0  HIT:          0  MISS:          0
cpu0_DTLB WRITEBACK ACCESS:          0  HIT:          0  MISS:          0
cpu0_DTLB TRANSLATION ACCESS:          0  HIT:          0  MISS:          0
cpu0_DTLB PREFETCH  REQUESTED:          0  ISSUED:          0  USEFUL:          0  USELESS:          0
cpu0_DTLB AVERAGE MISS LATENCY: 9.26342 cycles
cpu0_ITLB TOTAL     ACCESS:    6771125  HIT:    6771122  MISS:          3
cpu0_ITLB LOAD      ACCESS:    6771125  HIT:    6771122  MISS:          3
cpu0_ITLB RFO       ACCESS:          0  HIT:          0  MISS:          0
cpu0_ITLB PREFETCH  ACCESS:          0  HIT:          0  MISS:          0
cpu0_ITLB WRITEBACK ACCESS:          0  HIT:          0  MISS:          0
cpu0_ITLB TRANSLATION ACCESS:          0  HIT:          0  MISS:          0
cpu0_ITLB PREFETCH  REQUESTED:          0  ISSUED:          0  USEFUL:          0  USELESS:          0
cpu0_ITLB AVERAGE MISS LATENCY: 395.333 cycles
cpu0_L1I TOTAL     ACCESS:      58699  HIT:      58560  MISS:        139
cpu0_L1I LOAD      ACCESS:      58699  HIT:      58560  MISS:        139
cpu0_L1I RFO       ACCESS:          0  HIT:          0  MISS:          0
cpu0_L1I PREFETCH  ACCESS:          0  HIT:          0  MISS:          0
cpu0_L1I WRITEBACK ACCESS:          0  HIT:          0  MISS:          0
cpu0_L1I TRANSLATION ACCESS:          0  HIT:          0  MISS:          0
cpu0_L1I PREFETCH  REQUESTED:          0  ISSUED:          0  USEFUL:          0  USELESS:          0
cpu0_L1I AVERAGE MISS LATENCY: 198.194 cycles
cpu0_STLB TOTAL     ACCESS:     660768  HIT:     659948  MISS:        820
cpu0_STLB LOAD      ACCESS:     656875  HIT:     656603  MISS:        272
cpu0_STLB RFO       ACCESS:       3893  HIT:       3345  MISS:        548
cpu0_STLB PREFETCH  ACCESS:          0  HIT:          0  MISS:          0
cpu0_STLB WRITEBACK ACCESS:          0  HIT:          0  MISS:          0
cpu0_STLB TRANSLATION ACCESS:          0  HIT:          0  MISS:          0
cpu0_STLB PREFETCH  REQUESTED:          0  ISSUED:          0  USEFUL:          0  USELESS:          0
cpu0_STLB AVERAGE MISS LATENCY: 213.607 cycles
cpu0_L1D TOTAL     ACCESS:   20327954  HIT:   19322387  MISS:    1005567
cpu0_L1D LOAD      ACCESS:   10373245  HIT:    9486870  MISS:     886375
cpu0_L1D RFO       ACCESS:    9953892  HIT:    9835019  MISS:     118873
cpu0_L1D PREFETCH  ACCESS:          0  HIT:          0  MISS:          0
cpu0_L1D WRITEBACK ACCESS:          0  HIT:          0  MISS:          0
cpu0_L1D TRANSLATION ACCESS:        817  HIT:        498  MISS:        319
cpu0_L1D PREFETCH  REQUESTED:          0  ISSUED:          0  USEFUL:          0  USELESS:          0
cpu0_L1D AVERAGE MISS LATENCY: 88.5647 cycles
cpu0_L2C TOTAL     ACCESS:    1222699  HIT:     525074  MISS:     697625
cpu0_L2C LOAD      ACCESS:     886509  HIT:     288911  MISS:     597598
cpu0_L2C RFO       ACCESS:     118872  HIT:      18899  MISS:      99973
cpu0_L2C PREFETCH  ACCESS:          0  HIT:          0  MISS:          0
cpu0_L2C WRITEBACK ACCESS:     216999  HIT:     216963  MISS:         36
cpu0_L2C TRANSLATION ACCESS:        319  HIT:        301  MISS:         18
cpu0_L2C PREFETCH  REQUESTED:          0  ISSUED:          0  USEFUL:          0  USELESS:          0
cpu0_L2C AVERAGE MISS LATENCY: 111.835 cycles
LLC TOTAL     ACCESS:     886587  HIT:     587402  MISS:     299185
LLC LOAD      ACCESS:     597597  HIT:     404486  MISS:     193111
LLC RFO       ACCESS:      99973  HIT:      39964  MISS:      60009
LLC PREFETCH  ACCESS:          0  HIT:          0  MISS:          0
LLC WRITEBACK ACCESS:     188999  HIT:     142951  MISS:      46048
LLC TRANSLATION ACCESS:         18  HIT:          1  MISS:         17
LLC PREFETCH  REQUESTED:          0  ISSUED:          0  USEFUL:          0  USELESS:          0
LLC AVERAGE MISS LATENCY: 211.805 cycles
OPTgen accesses: 11231
OPTgen hits: 8311
OPTgen hit rate: 74.0005



DRAM Statistics
 CHANNEL 0
 RQ ROW_BUFFER_HIT:      34971  ROW_BUFFER_MISS:     217959
 DBUS AVG_CONGESTED_CYCLE:    3.95541
 WQ ROW_BUFFER_HIT:      16314  ROW_BUFFER_MISS:     119854  FULL:       2713


CPU 0 Branch Prediction Accuracy: 93.3658% MPKI: 11.2167 Average ROB Occupancy at Mispredict: 31.7289
Branch type MPKI
BRANCH_DIRECT_JUMP: 0.0006
BRANCH_INDIRECT: 0.01713
BRANCH_CONDITIONAL: 11.1989
BRANCH_DIRECT_CALL: 5e-05
BRANCH_INDIRECT_CALL: 0
BRANCH_RETURN: 6e-05

