
*** ChampSim Multicore Out-of-Order Simulator ***

Warmup Instructions: 10000000
Simulation Instructions: 100000000
Number of CPUs: 1
Off-chip DRAM Size: 4 GiB Channels: 1 Width: 64-bit Data Rate: 3200 MT/s

VirtualMemory physical capacity: 8588881920 num_ppages: 2096895
VirtualMemory page size: 4096 log2_page_size: 12

CPU 0 runs /datasets/cs240c-wi22-a00-public/data/Assignment2/wrf_1650B.trace.xz
CPU 0 Bimodal branch predictor
Basic BTB sets: 1024 ways: 8 indirect buffer size: 4096 RAS size: 64
Initialize Hawkeye state
Heartbeat CPU 0 instructions: 10000001 cycles: 2500100 heartbeat IPC: 3.99984 cumulative IPC: 3.99984 (Simulation time: 0 hr 0 min 26 sec) 

Warmup complete CPU 0 instructions: 10000001 cycles: 2500100 (Simulation time: 0 hr 0 min 26 sec) 

Heartbeat CPU 0 instructions: 20000004 cycles: 12137577 heartbeat IPC: 1.03762 cumulative IPC: 1.03762 (Simulation time: 0 hr 1 min 21 sec) 
Heartbeat CPU 0 instructions: 30000000 cycles: 21774170 heartbeat IPC: 1.03771 cumulative IPC: 1.03766 (Simulation time: 0 hr 2 min 15 sec) 
Heartbeat CPU 0 instructions: 40000002 cycles: 31416863 heartbeat IPC: 1.03705 cumulative IPC: 1.03746 (Simulation time: 0 hr 3 min 12 sec) 
Heartbeat CPU 0 instructions: 50000000 cycles: 47932086 heartbeat IPC: 0.605502 cumulative IPC: 0.880437 (Simulation time: 0 hr 4 min 43 sec) 
Heartbeat CPU 0 instructions: 60000000 cycles: 60651770 heartbeat IPC: 0.786183 cumulative IPC: 0.859821 (Simulation time: 0 hr 6 min 17 sec) 
Heartbeat CPU 0 instructions: 70000002 cycles: 76633183 heartbeat IPC: 0.625727 cumulative IPC: 0.809355 (Simulation time: 0 hr 7 min 40 sec) 
Heartbeat CPU 0 instructions: 80000004 cycles: 92444067 heartbeat IPC: 0.632476 cumulative IPC: 0.778262 (Simulation time: 0 hr 9 min 1 sec) 
Heartbeat CPU 0 instructions: 90000002 cycles: 107483201 heartbeat IPC: 0.664932 cumulative IPC: 0.762027 (Simulation time: 0 hr 10 min 21 sec) 
Heartbeat CPU 0 instructions: 100000004 cycles: 127512293 heartbeat IPC: 0.499274 cumulative IPC: 0.71993 (Simulation time: 0 hr 12 min 1 sec) 
Heartbeat CPU 0 instructions: 110000004 cycles: 145787367 heartbeat IPC: 0.547193 cumulative IPC: 0.697899 (Simulation time: 0 hr 13 min 27 sec) 
Finished CPU 0 instructions: 100000003 cycles: 143287267 cumulative IPC: 0.697899 (Simulation time: 0 hr 13 min 27 sec) 

ChampSim completed all CPUs

Region of Interest Statistics

CPU 0 cumulative IPC: 0.697899 instructions: 100000003 cycles: 143287267
cpu0_DTLB TOTAL     ACCESS:   16171954  HIT:   16141192  MISS:      30762
cpu0_DTLB LOAD      ACCESS:   14751752  HIT:   14727733  MISS:      24019
cpu0_DTLB RFO       ACCESS:    1420202  HIT:    1413459  MISS:       6743
cpu0_DTLB PREFETCH  ACCESS:          0  HIT:          0  MISS:          0
cpu0_DTLB WRITEBACK ACCESS:          0  HIT:          0  MISS:          0
cpu0_DTLB TRANSLATION ACCESS:          0  HIT:          0  MISS:          0
cpu0_DTLB PREFETCH  REQUESTED:          0  ISSUED:          0  USEFUL:          0  USELESS:          0
cpu0_DTLB AVERAGE MISS LATENCY: 146.069 cycles
cpu0_ITLB TOTAL     ACCESS:    6815820  HIT:    6815793  MISS:         27
cpu0_ITLB LOAD      ACCESS:    6815820  HIT:    6815793  MISS:         27
cpu0_ITLB RFO       ACCESS:          0  HIT:          0  MISS:          0
cpu0_ITLB PREFETCH  ACCESS:          0  HIT:          0  MISS:          0
cpu0_ITLB WRITEBACK ACCESS:          0  HIT:          0  MISS:          0
cpu0_ITLB TRANSLATION ACCESS:          0  HIT:          0  MISS:          0
cpu0_ITLB PREFETCH  REQUESTED:          0  ISSUED:          0  USEFUL:          0  USELESS:          0
cpu0_ITLB AVERAGE MISS LATENCY: 240.519 cycles
cpu0_L1I TOTAL     ACCESS:    1672726  HIT:    1672182  MISS:        544
cpu0_L1I LOAD      ACCESS:    1672726  HIT:    1672182  MISS:        544
cpu0_L1I RFO       ACCESS:          0  HIT:          0  MISS:          0
cpu0_L1I PREFETCH  ACCESS:          0  HIT:          0  MISS:          0
cpu0_L1I WRITEBACK ACCESS:          0  HIT:          0  MISS:          0
cpu0_L1I TRANSLATION ACCESS:          0  HIT:          0  MISS:          0
cpu0_L1I PREFETCH  REQUESTED:          0  ISSUED:          0  USEFUL:          0  USELESS:          0
cpu0_L1I AVERAGE MISS LATENCY: 378.02 cycles
cpu0_STLB TOTAL     ACCESS:      30789  HIT:      16559  MISS:      14230
cpu0_STLB LOAD      ACCESS:      24046  HIT:      13006  MISS:      11040
cpu0_STLB RFO       ACCESS:       6743  HIT:       3553  MISS:       3190
cpu0_STLB PREFETCH  ACCESS:          0  HIT:          0  MISS:          0
cpu0_STLB WRITEBACK ACCESS:          0  HIT:          0  MISS:          0
cpu0_STLB TRANSLATION ACCESS:          0  HIT:          0  MISS:          0
cpu0_STLB PREFETCH  REQUESTED:          0  ISSUED:          0  USEFUL:          0  USELESS:          0
cpu0_STLB AVERAGE MISS LATENCY: 296.751 cycles
cpu0_L1D TOTAL     ACCESS:   14664144  HIT:   13631972  MISS:    1032172
cpu0_L1D LOAD      ACCESS:   12375993  HIT:   11558505  MISS:     817488
cpu0_L1D RFO       ACCESS:    2275296  HIT:    2061186  MISS:     214110
cpu0_L1D PREFETCH  ACCESS:          0  HIT:          0  MISS:          0
cpu0_L1D WRITEBACK ACCESS:          0  HIT:          0  MISS:          0
cpu0_L1D TRANSLATION ACCESS:      12855  HIT:      12281  MISS:        574
cpu0_L1D PREFETCH  REQUESTED:          0  ISSUED:          0  USEFUL:          0  USELESS:          0
cpu0_L1D AVERAGE MISS LATENCY: 235.931 cycles
cpu0_L2C TOTAL     ACCESS:    1279083  HIT:     490241  MISS:     788842
cpu0_L2C LOAD      ACCESS:     818021  HIT:     229613  MISS:     588408
cpu0_L2C RFO       ACCESS:     214106  HIT:      13798  MISS:     200308
cpu0_L2C PREFETCH  ACCESS:          0  HIT:          0  MISS:          0
cpu0_L2C WRITEBACK ACCESS:     246382  HIT:     246300  MISS:         82
cpu0_L2C TRANSLATION ACCESS:        574  HIT:        530  MISS:         44
cpu0_L2C PREFETCH  REQUESTED:          0  ISSUED:          0  USEFUL:          0  USELESS:          0
cpu0_L2C AVERAGE MISS LATENCY: 294.558 cycles
LLC TOTAL     ACCESS:    1004524  HIT:     113132  MISS:     891392
LLC LOAD      ACCESS:     588406  HIT:      32306  MISS:     556100
LLC RFO       ACCESS:     200308  HIT:         60  MISS:     200248
LLC PREFETCH  ACCESS:          0  HIT:          0  MISS:          0
LLC WRITEBACK ACCESS:     215766  HIT:      80754  MISS:     135012
LLC TRANSLATION ACCESS:         44  HIT:         12  MISS:         32
LLC PREFETCH  REQUESTED:          0  ISSUED:          0  USEFUL:          0  USELESS:          0
LLC AVERAGE MISS LATENCY: 242.089 cycles
OPTgen accesses: 12591
OPTgen hits: 1209
OPTgen hit rate: 9.6021



DRAM Statistics
 CHANNEL 0
 RQ ROW_BUFFER_HIT:      26282  ROW_BUFFER_MISS:     730082
 DBUS AVG_CONGESTED_CYCLE:    3.93176
 WQ ROW_BUFFER_HIT:      36052  ROW_BUFFER_MISS:     174447  FULL:          0


CPU 0 Branch Prediction Accuracy: 83.2596% MPKI: 18.9931 Average ROB Occupancy at Mispredict: 252.357
Branch type MPKI
BRANCH_DIRECT_JUMP: 0.0005
BRANCH_INDIRECT: 0
BRANCH_CONDITIONAL: 18.9921
BRANCH_DIRECT_CALL: 0.00023
BRANCH_INDIRECT_CALL: 0
BRANCH_RETURN: 0.00022

