
*** ChampSim Multicore Out-of-Order Simulator ***

Warmup Instructions: 10000000
Simulation Instructions: 100000000
Number of CPUs: 1
Off-chip DRAM Size: 4 GiB Channels: 1 Width: 64-bit Data Rate: 3200 MT/s

VirtualMemory physical capacity: 8588881920 num_ppages: 2096895
VirtualMemory page size: 4096 log2_page_size: 12

CPU 0 runs /datasets/cs240c-wi22-a00-public/data/Assignment2/cactusADM_1039B.trace.xz
CPU 0 Bimodal branch predictor
Basic BTB sets: 1024 ways: 8 indirect buffer size: 4096 RAS size: 64
Initialize Hawkeye state
Heartbeat CPU 0 instructions: 10000004 cycles: 3647107 heartbeat IPC: 2.7419 cumulative IPC: 2.7419 (Simulation time: 0 hr 0 min 52 sec) 

Warmup complete CPU 0 instructions: 10000004 cycles: 3647107 (Simulation time: 0 hr 0 min 52 sec) 

Heartbeat CPU 0 instructions: 20000004 cycles: 13503402 heartbeat IPC: 1.01458 cumulative IPC: 1.01458 (Simulation time: 0 hr 2 min 27 sec) 
Heartbeat CPU 0 instructions: 30000000 cycles: 23081147 heartbeat IPC: 1.04409 cumulative IPC: 1.02912 (Simulation time: 0 hr 4 min 0 sec) 
Heartbeat CPU 0 instructions: 40000000 cycles: 31867525 heartbeat IPC: 1.13813 cumulative IPC: 1.06306 (Simulation time: 0 hr 5 min 30 sec) 
Heartbeat CPU 0 instructions: 50000004 cycles: 40636687 heartbeat IPC: 1.14036 cumulative IPC: 1.08139 (Simulation time: 0 hr 7 min 0 sec) 
Heartbeat CPU 0 instructions: 60000002 cycles: 47130184 heartbeat IPC: 1.54 cumulative IPC: 1.14987 (Simulation time: 0 hr 8 min 18 sec) 
Heartbeat CPU 0 instructions: 70000003 cycles: 55850862 heartbeat IPC: 1.1467 cumulative IPC: 1.14934 (Simulation time: 0 hr 9 min 46 sec) 
Heartbeat CPU 0 instructions: 80000004 cycles: 64543155 heartbeat IPC: 1.15044 cumulative IPC: 1.1495 (Simulation time: 0 hr 11 min 15 sec) 
Heartbeat CPU 0 instructions: 90000004 cycles: 73252202 heartbeat IPC: 1.14823 cumulative IPC: 1.14934 (Simulation time: 0 hr 12 min 43 sec) 
Heartbeat CPU 0 instructions: 100000000 cycles: 79728815 heartbeat IPC: 1.54402 cumulative IPC: 1.18294 (Simulation time: 0 hr 14 min 1 sec) 
Heartbeat CPU 0 instructions: 110000001 cycles: 88428185 heartbeat IPC: 1.14951 cumulative IPC: 1.17951 (Simulation time: 0 hr 15 min 32 sec) 
Finished CPU 0 instructions: 100000002 cycles: 84781079 cumulative IPC: 1.17951 (Simulation time: 0 hr 15 min 32 sec) 

ChampSim completed all CPUs

Region of Interest Statistics

CPU 0 cumulative IPC: 1.17951 instructions: 100000002 cycles: 84781079
cpu0_DTLB TOTAL     ACCESS:   23000071  HIT:   20950725  MISS:    2049346
cpu0_DTLB LOAD      ACCESS:   19084477  HIT:   17651367  MISS:    1433110
cpu0_DTLB RFO       ACCESS:    3915594  HIT:    3299358  MISS:     616236
cpu0_DTLB PREFETCH  ACCESS:          0  HIT:          0  MISS:          0
cpu0_DTLB WRITEBACK ACCESS:          0  HIT:          0  MISS:          0
cpu0_DTLB TRANSLATION ACCESS:          0  HIT:          0  MISS:          0
cpu0_DTLB PREFETCH  REQUESTED:          0  ISSUED:          0  USEFUL:          0  USELESS:          0
cpu0_DTLB AVERAGE MISS LATENCY: 15.7212 cycles
cpu0_ITLB TOTAL     ACCESS:    1451337  HIT:    1451337  MISS:          0
cpu0_ITLB LOAD      ACCESS:    1451337  HIT:    1451337  MISS:          0
cpu0_ITLB RFO       ACCESS:          0  HIT:          0  MISS:          0
cpu0_ITLB PREFETCH  ACCESS:          0  HIT:          0  MISS:          0
cpu0_ITLB WRITEBACK ACCESS:          0  HIT:          0  MISS:          0
cpu0_ITLB TRANSLATION ACCESS:          0  HIT:          0  MISS:          0
cpu0_ITLB PREFETCH  REQUESTED:          0  ISSUED:          0  USEFUL:          0  USELESS:          0
cpu0_ITLB AVERAGE MISS LATENCY: -nan cycles
cpu0_L1I TOTAL     ACCESS:    8129300  HIT:    8129297  MISS:          3
cpu0_L1I LOAD      ACCESS:    8129300  HIT:    8129297  MISS:          3
cpu0_L1I RFO       ACCESS:          0  HIT:          0  MISS:          0
cpu0_L1I PREFETCH  ACCESS:          0  HIT:          0  MISS:          0
cpu0_L1I WRITEBACK ACCESS:          0  HIT:          0  MISS:          0
cpu0_L1I TRANSLATION ACCESS:          0  HIT:          0  MISS:          0
cpu0_L1I PREFETCH  REQUESTED:          0  ISSUED:          0  USEFUL:          0  USELESS:          0
cpu0_L1I AVERAGE MISS LATENCY: 585.333 cycles
cpu0_STLB TOTAL     ACCESS:    2049346  HIT:    1126810  MISS:     922536
cpu0_STLB LOAD      ACCESS:    1433110  HIT:     833848  MISS:     599262
cpu0_STLB RFO       ACCESS:     616236  HIT:     292962  MISS:     323274
cpu0_STLB PREFETCH  ACCESS:          0  HIT:          0  MISS:          0
cpu0_STLB WRITEBACK ACCESS:          0  HIT:          0  MISS:          0
cpu0_STLB TRANSLATION ACCESS:          0  HIT:          0  MISS:          0
cpu0_STLB PREFETCH  REQUESTED:          0  ISSUED:          0  USEFUL:          0  USELESS:          0
cpu0_STLB AVERAGE MISS LATENCY: 14.7738 cycles
cpu0_L1D TOTAL     ACCESS:   37669740  HIT:   36345995  MISS:    1323745
cpu0_L1D LOAD      ACCESS:   25755661  HIT:   24703248  MISS:    1052413
cpu0_L1D RFO       ACCESS:   10992414  HIT:   10727043  MISS:     265371
cpu0_L1D PREFETCH  ACCESS:          0  HIT:          0  MISS:          0
cpu0_L1D WRITEBACK ACCESS:          0  HIT:          0  MISS:          0
cpu0_L1D TRANSLATION ACCESS:     921665  HIT:     915704  MISS:       5961
cpu0_L1D PREFETCH  REQUESTED:          0  ISSUED:          0  USEFUL:          0  USELESS:          0
cpu0_L1D AVERAGE MISS LATENCY: 282.534 cycles
cpu0_L2C TOTAL     ACCESS:    1593019  HIT:     694186  MISS:     898833
cpu0_L2C LOAD      ACCESS:    1052415  HIT:     419492  MISS:     632923
cpu0_L2C RFO       ACCESS:     265371  HIT:          0  MISS:     265371
cpu0_L2C PREFETCH  ACCESS:          0  HIT:          0  MISS:          0
cpu0_L2C WRITEBACK ACCESS:     269272  HIT:     269057  MISS:        215
cpu0_L2C TRANSLATION ACCESS:       5961  HIT:       5637  MISS:        324
cpu0_L2C PREFETCH  REQUESTED:          0  ISSUED:          0  USEFUL:          0  USELESS:          0
cpu0_L2C AVERAGE MISS LATENCY: 399.879 cycles
LLC TOTAL     ACCESS:    1165784  HIT:     313439  MISS:     852345
LLC LOAD      ACCESS:     632923  HIT:     119391  MISS:     513532
LLC RFO       ACCESS:     265371  HIT:      85057  MISS:     180314
LLC PREFETCH  ACCESS:          0  HIT:          0  MISS:          0
LLC WRITEBACK ACCESS:     267166  HIT:     108926  MISS:     158240
LLC TRANSLATION ACCESS:        324  HIT:         65  MISS:        259
LLC PREFETCH  REQUESTED:          0  ISSUED:          0  USEFUL:          0  USELESS:          0
LLC AVERAGE MISS LATENCY: 399.547 cycles
OPTgen accesses: 15021
OPTgen hits: 2139
OPTgen hit rate: 14.2401



DRAM Statistics
 CHANNEL 0
 RQ ROW_BUFFER_HIT:       6652  ROW_BUFFER_MISS:     687453
 DBUS AVG_CONGESTED_CYCLE:    3.97927
 WQ ROW_BUFFER_HIT:      25416  ROW_BUFFER_MISS:     224355  FULL:        311


CPU 0 Branch Prediction Accuracy: 97.7479% MPKI: 0.04701 Average ROB Occupancy at Mispredict: 283.809
Branch type MPKI
BRANCH_DIRECT_JUMP: 0
BRANCH_INDIRECT: 0
BRANCH_CONDITIONAL: 0.04701
BRANCH_DIRECT_CALL: 0
BRANCH_INDIRECT_CALL: 0
BRANCH_RETURN: 0

