
*** ChampSim Multicore Out-of-Order Simulator ***

Warmup Instructions: 10000000
Simulation Instructions: 100000000
Number of CPUs: 1
Off-chip DRAM Size: 4 GiB Channels: 1 Width: 64-bit Data Rate: 3200 MT/s

VirtualMemory physical capacity: 8588881920 num_ppages: 2096895
VirtualMemory page size: 4096 log2_page_size: 12

CPU 0 runs /datasets/cs240c-wi22-a00-public/data/Assignment2/omnetpp_4B.trace.xz
CPU 0 Bimodal branch predictor
Basic BTB sets: 1024 ways: 8 indirect buffer size: 4096 RAS size: 64
Initialize Hawkeye state
Heartbeat CPU 0 instructions: 10000002 cycles: 2526517 heartbeat IPC: 3.95802 cumulative IPC: 3.95802 (Simulation time: 0 hr 0 min 29 sec) 

Warmup complete CPU 0 instructions: 10000002 cycles: 2526517 (Simulation time: 0 hr 0 min 29 sec) 

Heartbeat CPU 0 instructions: 20000000 cycles: 9467267 heartbeat IPC: 1.44077 cumulative IPC: 1.44077 (Simulation time: 0 hr 1 min 9 sec) 
Heartbeat CPU 0 instructions: 30000001 cycles: 17087683 heartbeat IPC: 1.31226 cumulative IPC: 1.37352 (Simulation time: 0 hr 1 min 58 sec) 
Heartbeat CPU 0 instructions: 40000002 cycles: 24597764 heartbeat IPC: 1.33154 cumulative IPC: 1.35923 (Simulation time: 0 hr 2 min 45 sec) 
Heartbeat CPU 0 instructions: 50000000 cycles: 31895239 heartbeat IPC: 1.37034 cumulative IPC: 1.36199 (Simulation time: 0 hr 3 min 32 sec) 
Heartbeat CPU 0 instructions: 60000000 cycles: 39550485 heartbeat IPC: 1.30629 cumulative IPC: 1.35048 (Simulation time: 0 hr 4 min 21 sec) 
Heartbeat CPU 0 instructions: 70000000 cycles: 46846953 heartbeat IPC: 1.37053 cumulative IPC: 1.35378 (Simulation time: 0 hr 5 min 6 sec) 
Heartbeat CPU 0 instructions: 80000000 cycles: 54336626 heartbeat IPC: 1.33517 cumulative IPC: 1.35109 (Simulation time: 0 hr 5 min 53 sec) 
Heartbeat CPU 0 instructions: 90000000 cycles: 62253053 heartbeat IPC: 1.2632 cumulative IPC: 1.33944 (Simulation time: 0 hr 6 min 45 sec) 
Heartbeat CPU 0 instructions: 100000001 cycles: 69317900 heartbeat IPC: 1.41546 cumulative IPC: 1.34748 (Simulation time: 0 hr 7 min 27 sec) 
Heartbeat CPU 0 instructions: 110000002 cycles: 77080235 heartbeat IPC: 1.28827 cumulative IPC: 1.34131 (Simulation time: 0 hr 8 min 16 sec) 
Finished CPU 0 instructions: 100000000 cycles: 74553718 cumulative IPC: 1.34131 (Simulation time: 0 hr 8 min 16 sec) 

ChampSim completed all CPUs

Region of Interest Statistics

CPU 0 cumulative IPC: 1.34131 instructions: 100000000 cycles: 74553718
cpu0_DTLB TOTAL     ACCESS:   11759465  HIT:   10327571  MISS:    1431894
cpu0_DTLB LOAD      ACCESS:    9173241  HIT:    7742906  MISS:    1430335
cpu0_DTLB RFO       ACCESS:    2586224  HIT:    2584665  MISS:       1559
cpu0_DTLB PREFETCH  ACCESS:          0  HIT:          0  MISS:          0
cpu0_DTLB WRITEBACK ACCESS:          0  HIT:          0  MISS:          0
cpu0_DTLB TRANSLATION ACCESS:          0  HIT:          0  MISS:          0
cpu0_DTLB PREFETCH  REQUESTED:          0  ISSUED:          0  USEFUL:          0  USELESS:          0
cpu0_DTLB AVERAGE MISS LATENCY: 17.6595 cycles
cpu0_ITLB TOTAL     ACCESS:    7987596  HIT:    7963429  MISS:      24167
cpu0_ITLB LOAD      ACCESS:    7987596  HIT:    7963429  MISS:      24167
cpu0_ITLB RFO       ACCESS:          0  HIT:          0  MISS:          0
cpu0_ITLB PREFETCH  ACCESS:          0  HIT:          0  MISS:          0
cpu0_ITLB WRITEBACK ACCESS:          0  HIT:          0  MISS:          0
cpu0_ITLB TRANSLATION ACCESS:          0  HIT:          0  MISS:          0
cpu0_ITLB PREFETCH  REQUESTED:          0  ISSUED:          0  USEFUL:          0  USELESS:          0
cpu0_ITLB AVERAGE MISS LATENCY: 10.8441 cycles
cpu0_L1I TOTAL     ACCESS:    1939509  HIT:    1876657  MISS:      62852
cpu0_L1I LOAD      ACCESS:    1939509  HIT:    1876657  MISS:      62852
cpu0_L1I RFO       ACCESS:          0  HIT:          0  MISS:          0
cpu0_L1I PREFETCH  ACCESS:          0  HIT:          0  MISS:          0
cpu0_L1I WRITEBACK ACCESS:          0  HIT:          0  MISS:          0
cpu0_L1I TRANSLATION ACCESS:          0  HIT:          0  MISS:          0
cpu0_L1I PREFETCH  REQUESTED:          0  ISSUED:          0  USEFUL:          0  USELESS:          0
cpu0_L1I AVERAGE MISS LATENCY: 47.5834 cycles
cpu0_STLB TOTAL     ACCESS:    1456061  HIT:      23512  MISS:    1432549
cpu0_STLB LOAD      ACCESS:    1454502  HIT:      22770  MISS:    1431732
cpu0_STLB RFO       ACCESS:       1559  HIT:        742  MISS:        817
cpu0_STLB PREFETCH  ACCESS:          0  HIT:          0  MISS:          0
cpu0_STLB WRITEBACK ACCESS:          0  HIT:          0  MISS:          0
cpu0_STLB TRANSLATION ACCESS:          0  HIT:          0  MISS:          0
cpu0_STLB PREFETCH  REQUESTED:          0  ISSUED:          0  USEFUL:          0  USELESS:          0
cpu0_STLB AVERAGE MISS LATENCY: 8.26453 cycles
cpu0_L1D TOTAL     ACCESS:   12746763  HIT:   10256860  MISS:    2489903
cpu0_L1D LOAD      ACCESS:    7410431  HIT:    4959236  MISS:    2451195
cpu0_L1D RFO       ACCESS:    4650722  HIT:    4613008  MISS:      37714
cpu0_L1D PREFETCH  ACCESS:          0  HIT:          0  MISS:          0
cpu0_L1D WRITEBACK ACCESS:          0  HIT:          0  MISS:          0
cpu0_L1D TRANSLATION ACCESS:     685610  HIT:     684616  MISS:        994
cpu0_L1D PREFETCH  REQUESTED:          0  ISSUED:          0  USEFUL:          0  USELESS:          0
cpu0_L1D AVERAGE MISS LATENCY: 86.337 cycles
cpu0_L2C TOTAL     ACCESS:    2633697  HIT:     114327  MISS:    2519370
cpu0_L2C LOAD      ACCESS:    2514046  HIT:      32388  MISS:    2481658
cpu0_L2C RFO       ACCESS:      37714  HIT:        794  MISS:      36920
cpu0_L2C PREFETCH  ACCESS:          0  HIT:          0  MISS:          0
cpu0_L2C WRITEBACK ACCESS:      80943  HIT:      80943  MISS:          0
cpu0_L2C TRANSLATION ACCESS:        994  HIT:        202  MISS:        792
cpu0_L2C PREFETCH  REQUESTED:          0  ISSUED:          0  USEFUL:          0  USELESS:          0
cpu0_L2C AVERAGE MISS LATENCY: 74.8177 cycles
LLC TOTAL     ACCESS:    2598906  HIT:    2126385  MISS:     472521
LLC LOAD      ACCESS:    2481656  HIT:    2035039  MISS:     446617
LLC RFO       ACCESS:      36920  HIT:      17054  MISS:      19866
LLC PREFETCH  ACCESS:          0  HIT:          0  MISS:          0
LLC WRITEBACK ACCESS:      79538  HIT:      73692  MISS:       5846
LLC TRANSLATION ACCESS:        792  HIT:        600  MISS:        192
LLC PREFETCH  REQUESTED:          0  ISSUED:          0  USEFUL:          0  USELESS:          0
LLC AVERAGE MISS LATENCY: 286.873 cycles
OPTgen accesses: 44262
OPTgen hits: 38408
OPTgen hit rate: 86.7742



DRAM Statistics
 CHANNEL 0
 RQ ROW_BUFFER_HIT:      23641  ROW_BUFFER_MISS:     439508
 DBUS AVG_CONGESTED_CYCLE:    3.94273
 WQ ROW_BUFFER_HIT:       6635  ROW_BUFFER_MISS:      46276  FULL:          0


CPU 0 Branch Prediction Accuracy: 97.4293% MPKI: 8.26178 Average ROB Occupancy at Mispredict: 57.0647
Branch type MPKI
BRANCH_DIRECT_JUMP: 0.00037
BRANCH_INDIRECT: 0.12485
BRANCH_CONDITIONAL: 8.10493
BRANCH_DIRECT_CALL: 0.00326
BRANCH_INDIRECT_CALL: 0.00558
BRANCH_RETURN: 0.02279

