
*** ChampSim Multicore Out-of-Order Simulator ***

Warmup Instructions: 10000000
Simulation Instructions: 100000000
Number of CPUs: 1
Off-chip DRAM Size: 4 GiB Channels: 1 Width: 64-bit Data Rate: 3200 MT/s

VirtualMemory physical capacity: 8588881920 num_ppages: 2096895
VirtualMemory page size: 4096 log2_page_size: 12

CPU 0 runs /datasets/cs240c-wi22-a00-public/data/Assignment2/perlbench_53B.trace.xz
CPU 0 Bimodal branch predictor
Basic BTB sets: 1024 ways: 8 indirect buffer size: 4096 RAS size: 64
Initialize Hawkeye state
Heartbeat CPU 0 instructions: 10000000 cycles: 2503714 heartbeat IPC: 3.99407 cumulative IPC: 3.99407 (Simulation time: 0 hr 0 min 33 sec) 

Warmup complete CPU 0 instructions: 10000004 cycles: 2503715 (Simulation time: 0 hr 0 min 33 sec) 

Heartbeat CPU 0 instructions: 20000001 cycles: 15188543 heartbeat IPC: 0.788343 cumulative IPC: 0.788343 (Simulation time: 0 hr 1 min 21 sec) 
Heartbeat CPU 0 instructions: 30000001 cycles: 25202056 heartbeat IPC: 0.998651 cumulative IPC: 0.881122 (Simulation time: 0 hr 2 min 8 sec) 
Heartbeat CPU 0 instructions: 40000004 cycles: 37164824 heartbeat IPC: 0.835927 cumulative IPC: 0.865523 (Simulation time: 0 hr 2 min 55 sec) 
Heartbeat CPU 0 instructions: 50000001 cycles: 48334883 heartbeat IPC: 0.89525 cumulative IPC: 0.872768 (Simulation time: 0 hr 3 min 42 sec) 
Heartbeat CPU 0 instructions: 60000004 cycles: 61339010 heartbeat IPC: 0.768987 cumulative IPC: 0.84983 (Simulation time: 0 hr 4 min 31 sec) 
Heartbeat CPU 0 instructions: 70000004 cycles: 75119529 heartbeat IPC: 0.725662 cumulative IPC: 0.826266 (Simulation time: 0 hr 5 min 20 sec) 
Heartbeat CPU 0 instructions: 80000004 cycles: 88781987 heartbeat IPC: 0.731933 cumulative IPC: 0.811328 (Simulation time: 0 hr 6 min 12 sec) 
Heartbeat CPU 0 instructions: 90000001 cycles: 101467619 heartbeat IPC: 0.788293 cumulative IPC: 0.808376 (Simulation time: 0 hr 7 min 0 sec) 
Heartbeat CPU 0 instructions: 100000003 cycles: 115273564 heartbeat IPC: 0.724326 cumulative IPC: 0.798086 (Simulation time: 0 hr 7 min 52 sec) 
Heartbeat CPU 0 instructions: 110000002 cycles: 127448766 heartbeat IPC: 0.821342 cumulative IPC: 0.800352 (Simulation time: 0 hr 8 min 40 sec) 
Finished CPU 0 instructions: 100000000 cycles: 124945052 cumulative IPC: 0.800352 (Simulation time: 0 hr 8 min 40 sec) 

ChampSim completed all CPUs

Region of Interest Statistics

CPU 0 cumulative IPC: 0.800352 instructions: 100000000 cycles: 124945052
cpu0_DTLB TOTAL     ACCESS:   24814687  HIT:   24162111  MISS:     652576
cpu0_DTLB LOAD      ACCESS:   16193530  HIT:   15631717  MISS:     561813
cpu0_DTLB RFO       ACCESS:    8621157  HIT:    8530394  MISS:      90763
cpu0_DTLB PREFETCH  ACCESS:          0  HIT:          0  MISS:          0
cpu0_DTLB WRITEBACK ACCESS:          0  HIT:          0  MISS:          0
cpu0_DTLB TRANSLATION ACCESS:          0  HIT:          0  MISS:          0
cpu0_DTLB PREFETCH  REQUESTED:          0  ISSUED:          0  USEFUL:          0  USELESS:          0
cpu0_DTLB AVERAGE MISS LATENCY: 9.25835 cycles
cpu0_ITLB TOTAL     ACCESS:    8010998  HIT:    7934413  MISS:      76585
cpu0_ITLB LOAD      ACCESS:    8010998  HIT:    7934413  MISS:      76585
cpu0_ITLB RFO       ACCESS:          0  HIT:          0  MISS:          0
cpu0_ITLB PREFETCH  ACCESS:          0  HIT:          0  MISS:          0
cpu0_ITLB WRITEBACK ACCESS:          0  HIT:          0  MISS:          0
cpu0_ITLB TRANSLATION ACCESS:          0  HIT:          0  MISS:          0
cpu0_ITLB PREFETCH  REQUESTED:          0  ISSUED:          0  USEFUL:          0  USELESS:          0
cpu0_ITLB AVERAGE MISS LATENCY: 9.11423 cycles
cpu0_L1I TOTAL     ACCESS:   11821263  HIT:   11145077  MISS:     676186
cpu0_L1I LOAD      ACCESS:   11821263  HIT:   11145077  MISS:     676186
cpu0_L1I RFO       ACCESS:          0  HIT:          0  MISS:          0
cpu0_L1I PREFETCH  ACCESS:          0  HIT:          0  MISS:          0
cpu0_L1I WRITEBACK ACCESS:          0  HIT:          0  MISS:          0
cpu0_L1I TRANSLATION ACCESS:          0  HIT:          0  MISS:          0
cpu0_L1I PREFETCH  REQUESTED:          0  ISSUED:          0  USEFUL:          0  USELESS:          0
cpu0_L1I AVERAGE MISS LATENCY: 11.9852 cycles
cpu0_STLB TOTAL     ACCESS:     729161  HIT:     723348  MISS:       5813
cpu0_STLB LOAD      ACCESS:     638398  HIT:     633282  MISS:       5116
cpu0_STLB RFO       ACCESS:      90763  HIT:      90066  MISS:        697
cpu0_STLB PREFETCH  ACCESS:          0  HIT:          0  MISS:          0
cpu0_STLB WRITEBACK ACCESS:          0  HIT:          0  MISS:          0
cpu0_STLB TRANSLATION ACCESS:          0  HIT:          0  MISS:          0
cpu0_STLB PREFETCH  REQUESTED:          0  ISSUED:          0  USEFUL:          0  USELESS:          0
cpu0_STLB AVERAGE MISS LATENCY: 29.7537 cycles
cpu0_L1D TOTAL     ACCESS:   31988102  HIT:   31030357  MISS:     957745
cpu0_L1D LOAD      ACCESS:   17000847  HIT:   16128116  MISS:     872731
cpu0_L1D RFO       ACCESS:   14981486  HIT:   14897750  MISS:      83736
cpu0_L1D PREFETCH  ACCESS:          0  HIT:          0  MISS:          0
cpu0_L1D WRITEBACK ACCESS:          0  HIT:          0  MISS:          0
cpu0_L1D TRANSLATION ACCESS:       5769  HIT:       4491  MISS:       1278
cpu0_L1D PREFETCH  REQUESTED:          0  ISSUED:          0  USEFUL:          0  USELESS:          0
cpu0_L1D AVERAGE MISS LATENCY: 16.6336 cycles
cpu0_L2C TOTAL     ACCESS:    1881695  HIT:    1715439  MISS:     166256
cpu0_L2C LOAD      ACCESS:    1548903  HIT:    1404574  MISS:     144329
cpu0_L2C RFO       ACCESS:      83730  HIT:      62405  MISS:      21325
cpu0_L2C PREFETCH  ACCESS:          0  HIT:          0  MISS:          0
cpu0_L2C WRITEBACK ACCESS:     247784  HIT:     247308  MISS:        476
cpu0_L2C TRANSLATION ACCESS:       1278  HIT:       1152  MISS:        126
cpu0_L2C PREFETCH  REQUESTED:          0  ISSUED:          0  USEFUL:          0  USELESS:          0
cpu0_L2C AVERAGE MISS LATENCY: 36.3038 cycles
LLC TOTAL     ACCESS:     213731  HIT:     196297  MISS:      17434
LLC LOAD      ACCESS:     144329  HIT:     132142  MISS:      12187
LLC RFO       ACCESS:      21325  HIT:      16327  MISS:       4998
LLC PREFETCH  ACCESS:          0  HIT:          0  MISS:          0
LLC WRITEBACK ACCESS:      47951  HIT:      47703  MISS:        248
LLC TRANSLATION ACCESS:        126  HIT:        125  MISS:          1
LLC PREFETCH  REQUESTED:          0  ISSUED:          0  USEFUL:          0  USELESS:          0
LLC AVERAGE MISS LATENCY: 146.514 cycles
OPTgen accesses: 3347
OPTgen hits: 2780
OPTgen hit rate: 83.0595



DRAM Statistics
 CHANNEL 0
 RQ ROW_BUFFER_HIT:       3569  ROW_BUFFER_MISS:      13616
 DBUS AVG_CONGESTED_CYCLE:     3.8662
 WQ ROW_BUFFER_HIT:        963  ROW_BUFFER_MISS:       2425  FULL:          0


CPU 0 Branch Prediction Accuracy: 94.2848% MPKI: 12.6658 Average ROB Occupancy at Mispredict: 36.2786
Branch type MPKI
BRANCH_DIRECT_JUMP: 0.00232
BRANCH_INDIRECT: 0.81431
BRANCH_CONDITIONAL: 10.3853
BRANCH_DIRECT_CALL: 0.00236
BRANCH_INDIRECT_CALL: 1.44344
BRANCH_RETURN: 0.01802

