
*** ChampSim Multicore Out-of-Order Simulator ***

Warmup Instructions: 10000000
Simulation Instructions: 100000000
Number of CPUs: 1
Off-chip DRAM Size: 4 GiB Channels: 1 Width: 64-bit Data Rate: 3200 MT/s

VirtualMemory physical capacity: 8588881920 num_ppages: 2096895
VirtualMemory page size: 4096 log2_page_size: 12

CPU 0 runs /datasets/cs240c-wi22-a00-public/data/Assignment2/omnetpp_340B.trace.xz
CPU 0 Bimodal branch predictor
Basic BTB sets: 1024 ways: 8 indirect buffer size: 4096 RAS size: 64
Initialize Hawkeye state
Heartbeat CPU 0 instructions: 10000002 cycles: 2500207 heartbeat IPC: 3.99967 cumulative IPC: 3.99967 (Simulation time: 0 hr 0 min 32 sec) 

Warmup complete CPU 0 instructions: 10000002 cycles: 2500207 (Simulation time: 0 hr 0 min 32 sec) 

Heartbeat CPU 0 instructions: 20000000 cycles: 27902562 heartbeat IPC: 0.393664 cumulative IPC: 0.393664 (Simulation time: 0 hr 1 min 38 sec) 
Heartbeat CPU 0 instructions: 30000002 cycles: 52936840 heartbeat IPC: 0.399452 cumulative IPC: 0.396537 (Simulation time: 0 hr 2 min 43 sec) 
Heartbeat CPU 0 instructions: 40000000 cycles: 77863428 heartbeat IPC: 0.401178 cumulative IPC: 0.398072 (Simulation time: 0 hr 3 min 46 sec) 
Heartbeat CPU 0 instructions: 50000002 cycles: 102766124 heartbeat IPC: 0.401563 cumulative IPC: 0.398939 (Simulation time: 0 hr 4 min 50 sec) 
Heartbeat CPU 0 instructions: 60000001 cycles: 128353358 heartbeat IPC: 0.39082 cumulative IPC: 0.397288 (Simulation time: 0 hr 5 min 58 sec) 
Heartbeat CPU 0 instructions: 70000003 cycles: 153999851 heartbeat IPC: 0.389917 cumulative IPC: 0.396041 (Simulation time: 0 hr 7 min 3 sec) 
Heartbeat CPU 0 instructions: 80000003 cycles: 180479609 heartbeat IPC: 0.377647 cumulative IPC: 0.393304 (Simulation time: 0 hr 8 min 17 sec) 
Heartbeat CPU 0 instructions: 90000000 cycles: 206416893 heartbeat IPC: 0.385545 cumulative IPC: 0.392317 (Simulation time: 0 hr 9 min 25 sec) 
Heartbeat CPU 0 instructions: 100000000 cycles: 233074825 heartbeat IPC: 0.375123 cumulative IPC: 0.390329 (Simulation time: 0 hr 10 min 41 sec) 
Heartbeat CPU 0 instructions: 110000000 cycles: 258230440 heartbeat IPC: 0.397526 cumulative IPC: 0.391037 (Simulation time: 0 hr 11 min 53 sec) 
Finished CPU 0 instructions: 100000000 cycles: 255730235 cumulative IPC: 0.391037 (Simulation time: 0 hr 11 min 53 sec) 

ChampSim completed all CPUs

Region of Interest Statistics

CPU 0 cumulative IPC: 0.391037 instructions: 100000000 cycles: 255730235
cpu0_DTLB TOTAL     ACCESS:   23846097  HIT:   21948950  MISS:    1897147
cpu0_DTLB LOAD      ACCESS:   13880476  HIT:   12299273  MISS:    1581203
cpu0_DTLB RFO       ACCESS:    9965621  HIT:    9649677  MISS:     315944
cpu0_DTLB PREFETCH  ACCESS:          0  HIT:          0  MISS:          0
cpu0_DTLB WRITEBACK ACCESS:          0  HIT:          0  MISS:          0
cpu0_DTLB TRANSLATION ACCESS:          0  HIT:          0  MISS:          0
cpu0_DTLB PREFETCH  REQUESTED:          0  ISSUED:          0  USEFUL:          0  USELESS:          0
cpu0_DTLB AVERAGE MISS LATENCY: 13.1567 cycles
cpu0_ITLB TOTAL     ACCESS:   11128568  HIT:   11093201  MISS:      35367
cpu0_ITLB LOAD      ACCESS:   11128568  HIT:   11093201  MISS:      35367
cpu0_ITLB RFO       ACCESS:          0  HIT:          0  MISS:          0
cpu0_ITLB PREFETCH  ACCESS:          0  HIT:          0  MISS:          0
cpu0_ITLB WRITEBACK ACCESS:          0  HIT:          0  MISS:          0
cpu0_ITLB TRANSLATION ACCESS:          0  HIT:          0  MISS:          0
cpu0_ITLB PREFETCH  REQUESTED:          0  ISSUED:          0  USEFUL:          0  USELESS:          0
cpu0_ITLB AVERAGE MISS LATENCY: 9.27113 cycles
cpu0_L1I TOTAL     ACCESS:    8347654  HIT:    8341304  MISS:       6350
cpu0_L1I LOAD      ACCESS:    8347654  HIT:    8341304  MISS:       6350
cpu0_L1I RFO       ACCESS:          0  HIT:          0  MISS:          0
cpu0_L1I PREFETCH  ACCESS:          0  HIT:          0  MISS:          0
cpu0_L1I WRITEBACK ACCESS:          0  HIT:          0  MISS:          0
cpu0_L1I TRANSLATION ACCESS:          0  HIT:          0  MISS:          0
cpu0_L1I PREFETCH  REQUESTED:          0  ISSUED:          0  USEFUL:          0  USELESS:          0
cpu0_L1I AVERAGE MISS LATENCY: 56.1937 cycles
cpu0_STLB TOTAL     ACCESS:    1932514  HIT:    1457320  MISS:     475194
cpu0_STLB LOAD      ACCESS:    1616570  HIT:    1262687  MISS:     353883
cpu0_STLB RFO       ACCESS:     315944  HIT:     194633  MISS:     121311
cpu0_STLB PREFETCH  ACCESS:          0  HIT:          0  MISS:          0
cpu0_STLB WRITEBACK ACCESS:          0  HIT:          0  MISS:          0
cpu0_STLB TRANSLATION ACCESS:          0  HIT:          0  MISS:          0
cpu0_STLB PREFETCH  REQUESTED:          0  ISSUED:          0  USEFUL:          0  USELESS:          0
cpu0_STLB AVERAGE MISS LATENCY: 16.1447 cycles
cpu0_L1D TOTAL     ACCESS:   31481042  HIT:   28983135  MISS:    2497907
cpu0_L1D LOAD      ACCESS:   15716197  HIT:   13533384  MISS:    2182813
cpu0_L1D RFO       ACCESS:   15324442  HIT:   15013853  MISS:     310589
cpu0_L1D PREFETCH  ACCESS:          0  HIT:          0  MISS:          0
cpu0_L1D WRITEBACK ACCESS:          0  HIT:          0  MISS:          0
cpu0_L1D TRANSLATION ACCESS:     440403  HIT:     435898  MISS:       4505
cpu0_L1D PREFETCH  REQUESTED:          0  ISSUED:          0  USEFUL:          0  USELESS:          0
cpu0_L1D AVERAGE MISS LATENCY: 143.729 cycles
cpu0_L2C TOTAL     ACCESS:    3581346  HIT:    1431343  MISS:    2150003
cpu0_L2C LOAD      ACCESS:    2189125  HIT:     330887  MISS:    1858238
cpu0_L2C RFO       ACCESS:     310589  HIT:      22196  MISS:     288393
cpu0_L2C PREFETCH  ACCESS:          0  HIT:          0  MISS:          0
cpu0_L2C WRITEBACK ACCESS:    1077127  HIT:    1074853  MISS:       2274
cpu0_L2C TRANSLATION ACCESS:       4505  HIT:       3407  MISS:       1098
cpu0_L2C PREFETCH  REQUESTED:          0  ISSUED:          0  USEFUL:          0  USELESS:          0
cpu0_L2C AVERAGE MISS LATENCY: 154.181 cycles
LLC TOTAL     ACCESS:    3079062  HIT:    1085951  MISS:    1993111
LLC LOAD      ACCESS:    1858237  HIT:     428857  MISS:    1429380
LLC RFO       ACCESS:     288393  HIT:      75967  MISS:     212426
LLC PREFETCH  ACCESS:          0  HIT:          0  MISS:          0
LLC WRITEBACK ACCESS:     931334  HIT:     580409  MISS:     350925
LLC TRANSLATION ACCESS:       1098  HIT:        718  MISS:        380
LLC PREFETCH  REQUESTED:          0  ISSUED:          0  USEFUL:          0  USELESS:          0
LLC AVERAGE MISS LATENCY: 143.689 cycles
OPTgen accesses: 36911
OPTgen hits: 14243
OPTgen hit rate: 38.5874



DRAM Statistics
 CHANNEL 0
 RQ ROW_BUFFER_HIT:      90461  ROW_BUFFER_MISS:    1551635
 DBUS AVG_CONGESTED_CYCLE:    3.92355
 WQ ROW_BUFFER_HIT:     170664  ROW_BUFFER_MISS:     522465  FULL:          0


CPU 0 Branch Prediction Accuracy: 94.4212% MPKI: 13.4017 Average ROB Occupancy at Mispredict: 51.7744
Branch type MPKI
BRANCH_DIRECT_JUMP: 0.00017
BRANCH_INDIRECT: 0.04543
BRANCH_CONDITIONAL: 13.2857
BRANCH_DIRECT_CALL: 8e-05
BRANCH_INDIRECT_CALL: 0.04734
BRANCH_RETURN: 0.02301

