
*** ChampSim Multicore Out-of-Order Simulator ***

Warmup Instructions: 10000000
Simulation Instructions: 100000000
Number of CPUs: 1
Off-chip DRAM Size: 4 GiB Channels: 1 Width: 64-bit Data Rate: 3200 MT/s

VirtualMemory physical capacity: 8588881920 num_ppages: 2096895
VirtualMemory page size: 4096 log2_page_size: 12

CPU 0 runs /datasets/cs240c-wi22-a00-public/data/Assignment2/leslie3d_94B.trace.xz
CPU 0 Bimodal branch predictor
Basic BTB sets: 1024 ways: 8 indirect buffer size: 4096 RAS size: 64
Initialize Hawkeye state
Heartbeat CPU 0 instructions: 10000002 cycles: 4308645 heartbeat IPC: 2.32092 cumulative IPC: 2.32092 (Simulation time: 0 hr 1 min 9 sec) 

Warmup complete CPU 0 instructions: 10000002 cycles: 4308645 (Simulation time: 0 hr 1 min 9 sec) 

Heartbeat CPU 0 instructions: 20000000 cycles: 24957279 heartbeat IPC: 0.484293 cumulative IPC: 0.484293 (Simulation time: 0 hr 3 min 27 sec) 
Heartbeat CPU 0 instructions: 30000002 cycles: 75287541 heartbeat IPC: 0.198688 cumulative IPC: 0.281774 (Simulation time: 0 hr 8 min 24 sec) 
Heartbeat CPU 0 instructions: 40000001 cycles: 86301833 heartbeat IPC: 0.907911 cumulative IPC: 0.365884 (Simulation time: 0 hr 10 min 10 sec) 
Heartbeat CPU 0 instructions: 50000002 cycles: 96575918 heartbeat IPC: 0.973323 cumulative IPC: 0.433523 (Simulation time: 0 hr 11 min 53 sec) 
Heartbeat CPU 0 instructions: 60000003 cycles: 106746485 heartbeat IPC: 0.983229 cumulative IPC: 0.488101 (Simulation time: 0 hr 13 min 34 sec) 
Heartbeat CPU 0 instructions: 70000001 cycles: 116979182 heartbeat IPC: 0.977259 cumulative IPC: 0.532526 (Simulation time: 0 hr 15 min 15 sec) 
Heartbeat CPU 0 instructions: 80000001 cycles: 130602929 heartbeat IPC: 0.734012 cumulative IPC: 0.554261 (Simulation time: 0 hr 17 min 15 sec) 
Heartbeat CPU 0 instructions: 90000004 cycles: 164364716 heartbeat IPC: 0.296193 cumulative IPC: 0.499825 (Simulation time: 0 hr 20 min 52 sec) 
Heartbeat CPU 0 instructions: 100000001 cycles: 220563792 heartbeat IPC: 0.177939 cumulative IPC: 0.416175 (Simulation time: 0 hr 27 min 1 sec) 
Heartbeat CPU 0 instructions: 110000004 cycles: 236751048 heartbeat IPC: 0.61777 cumulative IPC: 0.430214 (Simulation time: 0 hr 28 min 48 sec) 
Finished CPU 0 instructions: 100000002 cycles: 232442403 cumulative IPC: 0.430214 (Simulation time: 0 hr 28 min 48 sec) 

ChampSim completed all CPUs

Region of Interest Statistics

CPU 0 cumulative IPC: 0.430214 instructions: 100000002 cycles: 232442403
cpu0_DTLB TOTAL     ACCESS:   26703923  HIT:   26591279  MISS:     112644
cpu0_DTLB LOAD      ACCESS:   21444816  HIT:   21349075  MISS:      95741
cpu0_DTLB RFO       ACCESS:    5259107  HIT:    5242204  MISS:      16903
cpu0_DTLB PREFETCH  ACCESS:          0  HIT:          0  MISS:          0
cpu0_DTLB WRITEBACK ACCESS:          0  HIT:          0  MISS:          0
cpu0_DTLB TRANSLATION ACCESS:          0  HIT:          0  MISS:          0
cpu0_DTLB PREFETCH  REQUESTED:          0  ISSUED:          0  USEFUL:          0  USELESS:          0
cpu0_DTLB AVERAGE MISS LATENCY: 104.102 cycles
cpu0_ITLB TOTAL     ACCESS:    3126752  HIT:    3126695  MISS:         57
cpu0_ITLB LOAD      ACCESS:    3126752  HIT:    3126695  MISS:         57
cpu0_ITLB RFO       ACCESS:          0  HIT:          0  MISS:          0
cpu0_ITLB PREFETCH  ACCESS:          0  HIT:          0  MISS:          0
cpu0_ITLB WRITEBACK ACCESS:          0  HIT:          0  MISS:          0
cpu0_ITLB TRANSLATION ACCESS:          0  HIT:          0  MISS:          0
cpu0_ITLB PREFETCH  REQUESTED:          0  ISSUED:          0  USEFUL:          0  USELESS:          0
cpu0_ITLB AVERAGE MISS LATENCY: 243.228 cycles
cpu0_L1I TOTAL     ACCESS:    1638344  HIT:    1637272  MISS:       1072
cpu0_L1I LOAD      ACCESS:    1638344  HIT:    1637272  MISS:       1072
cpu0_L1I RFO       ACCESS:          0  HIT:          0  MISS:          0
cpu0_L1I PREFETCH  ACCESS:          0  HIT:          0  MISS:          0
cpu0_L1I WRITEBACK ACCESS:          0  HIT:          0  MISS:          0
cpu0_L1I TRANSLATION ACCESS:          0  HIT:          0  MISS:          0
cpu0_L1I PREFETCH  REQUESTED:          0  ISSUED:          0  USEFUL:          0  USELESS:          0
cpu0_L1I AVERAGE MISS LATENCY: 336.103 cycles
cpu0_STLB TOTAL     ACCESS:     112701  HIT:      63005  MISS:      49696
cpu0_STLB LOAD      ACCESS:      95798  HIT:      56434  MISS:      39364
cpu0_STLB RFO       ACCESS:      16903  HIT:       6571  MISS:      10332
cpu0_STLB PREFETCH  ACCESS:          0  HIT:          0  MISS:          0
cpu0_STLB WRITEBACK ACCESS:          0  HIT:          0  MISS:          0
cpu0_STLB TRANSLATION ACCESS:          0  HIT:          0  MISS:          0
cpu0_STLB PREFETCH  REQUESTED:          0  ISSUED:          0  USEFUL:          0  USELESS:          0
cpu0_STLB AVERAGE MISS LATENCY: 215.752 cycles
cpu0_L1D TOTAL     ACCESS:   22207365  HIT:   18171352  MISS:    4036013
cpu0_L1D LOAD      ACCESS:   13830539  HIT:   10741755  MISS:    3088784
cpu0_L1D RFO       ACCESS:    8334462  HIT:    7392147  MISS:     942315
cpu0_L1D PREFETCH  ACCESS:          0  HIT:          0  MISS:          0
cpu0_L1D WRITEBACK ACCESS:          0  HIT:          0  MISS:          0
cpu0_L1D TRANSLATION ACCESS:      42364  HIT:      37450  MISS:       4914
cpu0_L1D PREFETCH  REQUESTED:          0  ISSUED:          0  USEFUL:          0  USELESS:          0
cpu0_L1D AVERAGE MISS LATENCY: 614.132 cycles
cpu0_L2C TOTAL     ACCESS:    5249417  HIT:    2252481  MISS:    2996936
cpu0_L2C LOAD      ACCESS:    3089851  HIT:     791563  MISS:    2298288
cpu0_L2C RFO       ACCESS:     942217  HIT:     246140  MISS:     696077
cpu0_L2C PREFETCH  ACCESS:          0  HIT:          0  MISS:          0
cpu0_L2C WRITEBACK ACCESS:    1212435  HIT:    1210144  MISS:       2291
cpu0_L2C TRANSLATION ACCESS:       4914  HIT:       4634  MISS:        280
cpu0_L2C PREFETCH  REQUESTED:          0  ISSUED:          0  USEFUL:          0  USELESS:          0
cpu0_L2C AVERAGE MISS LATENCY: 812.287 cycles
LLC TOTAL     ACCESS:    3928030  HIT:     655639  MISS:    3272391
LLC LOAD      ACCESS:    2298281  HIT:     401645  MISS:    1896636
LLC RFO       ACCESS:     696068  HIT:      36777  MISS:     659291
LLC PREFETCH  ACCESS:          0  HIT:          0  MISS:          0
LLC WRITEBACK ACCESS:     933401  HIT:     217128  MISS:     716273
LLC TRANSLATION ACCESS:        280  HIT:         89  MISS:        191
LLC PREFETCH  REQUESTED:          0  ISSUED:          0  USEFUL:          0  USELESS:          0
LLC AVERAGE MISS LATENCY: 724.657 cycles
OPTgen accesses: 50364
OPTgen hits: 10978
OPTgen hit rate: 21.7973



DRAM Statistics
 CHANNEL 0
 RQ ROW_BUFFER_HIT:     171786  ROW_BUFFER_MISS:    2384118
 DBUS AVG_CONGESTED_CYCLE:    3.97284
 WQ ROW_BUFFER_HIT:      49097  ROW_BUFFER_MISS:     816963  FULL:      14344


CPU 0 Branch Prediction Accuracy: 96.9231% MPKI: 1.73686 Average ROB Occupancy at Mispredict: 309.093
Branch type MPKI
BRANCH_DIRECT_JUMP: 0.00082
BRANCH_INDIRECT: 0.00014
BRANCH_CONDITIONAL: 1.73229
BRANCH_DIRECT_CALL: 0.00185
BRANCH_INDIRECT_CALL: 3e-05
BRANCH_RETURN: 0.00173

