
*** ChampSim Multicore Out-of-Order Simulator ***

Warmup Instructions: 10000000
Simulation Instructions: 100000000
Number of CPUs: 1
Off-chip DRAM Size: 4 GiB Channels: 1 Width: 64-bit Data Rate: 3200 MT/s

VirtualMemory physical capacity: 8588881920 num_ppages: 2096895
VirtualMemory page size: 4096 log2_page_size: 12

CPU 0 runs /datasets/cs240c-wi22-a00-public/data/Assignment2/astar_313B.trace.xz
CPU 0 Bimodal branch predictor
Basic BTB sets: 1024 ways: 8 indirect buffer size: 4096 RAS size: 64
Initialize Hawkeye state
Heartbeat CPU 0 instructions: 10000003 cycles: 3956331 heartbeat IPC: 2.5276 cumulative IPC: 2.5276 (Simulation time: 0 hr 0 min 53 sec) 

Warmup complete CPU 0 instructions: 10000003 cycles: 3956331 (Simulation time: 0 hr 0 min 53 sec) 

Heartbeat CPU 0 instructions: 20000004 cycles: 59147980 heartbeat IPC: 0.181187 cumulative IPC: 0.181187 (Simulation time: 0 hr 2 min 59 sec) 
Heartbeat CPU 0 instructions: 30000001 cycles: 118985266 heartbeat IPC: 0.16712 cumulative IPC: 0.173869 (Simulation time: 0 hr 5 min 29 sec) 
Heartbeat CPU 0 instructions: 40000000 cycles: 179958295 heartbeat IPC: 0.164007 cumulative IPC: 0.170453 (Simulation time: 0 hr 7 min 56 sec) 
Heartbeat CPU 0 instructions: 50000001 cycles: 234358385 heartbeat IPC: 0.183823 cumulative IPC: 0.17361 (Simulation time: 0 hr 9 min 44 sec) 
Heartbeat CPU 0 instructions: 60000000 cycles: 289855217 heartbeat IPC: 0.18019 cumulative IPC: 0.174887 (Simulation time: 0 hr 11 min 52 sec) 
Heartbeat CPU 0 instructions: 70000000 cycles: 348529052 heartbeat IPC: 0.170434 cumulative IPC: 0.174129 (Simulation time: 0 hr 14 min 5 sec) 
Heartbeat CPU 0 instructions: 80000000 cycles: 403715348 heartbeat IPC: 0.181204 cumulative IPC: 0.175105 (Simulation time: 0 hr 15 min 59 sec) 
Heartbeat CPU 0 instructions: 90000001 cycles: 460040645 heartbeat IPC: 0.17754 cumulative IPC: 0.175406 (Simulation time: 0 hr 17 min 59 sec) 
Heartbeat CPU 0 instructions: 100000000 cycles: 513082192 heartbeat IPC: 0.188531 cumulative IPC: 0.176774 (Simulation time: 0 hr 19 min 45 sec) 
Heartbeat CPU 0 instructions: 110000000 cycles: 570019181 heartbeat IPC: 0.175633 cumulative IPC: 0.176659 (Simulation time: 0 hr 21 min 53 sec) 
Finished CPU 0 instructions: 100000001 cycles: 566062851 cumulative IPC: 0.176659 (Simulation time: 0 hr 21 min 53 sec) 

ChampSim completed all CPUs

Region of Interest Statistics

CPU 0 cumulative IPC: 0.176659 instructions: 100000001 cycles: 566062851
cpu0_DTLB TOTAL     ACCESS:   34351462  HIT:   30532818  MISS:    3818644
cpu0_DTLB LOAD      ACCESS:   26408466  HIT:   23786384  MISS:    2622082
cpu0_DTLB RFO       ACCESS:    7942996  HIT:    6746434  MISS:    1196562
cpu0_DTLB PREFETCH  ACCESS:          0  HIT:          0  MISS:          0
cpu0_DTLB WRITEBACK ACCESS:          0  HIT:          0  MISS:          0
cpu0_DTLB TRANSLATION ACCESS:          0  HIT:          0  MISS:          0
cpu0_DTLB PREFETCH  REQUESTED:          0  ISSUED:          0  USEFUL:          0  USELESS:          0
cpu0_DTLB AVERAGE MISS LATENCY: 156.054 cycles
cpu0_ITLB TOTAL     ACCESS:   11440154  HIT:   11440154  MISS:          0
cpu0_ITLB LOAD      ACCESS:   11440154  HIT:   11440154  MISS:          0
cpu0_ITLB RFO       ACCESS:          0  HIT:          0  MISS:          0
cpu0_ITLB PREFETCH  ACCESS:          0  HIT:          0  MISS:          0
cpu0_ITLB WRITEBACK ACCESS:          0  HIT:          0  MISS:          0
cpu0_ITLB TRANSLATION ACCESS:          0  HIT:          0  MISS:          0
cpu0_ITLB PREFETCH  REQUESTED:          0  ISSUED:          0  USEFUL:          0  USELESS:          0
cpu0_ITLB AVERAGE MISS LATENCY: -nan cycles
cpu0_L1I TOTAL     ACCESS:        129  HIT:        126  MISS:          3
cpu0_L1I LOAD      ACCESS:        129  HIT:        126  MISS:          3
cpu0_L1I RFO       ACCESS:          0  HIT:          0  MISS:          0
cpu0_L1I PREFETCH  ACCESS:          0  HIT:          0  MISS:          0
cpu0_L1I WRITEBACK ACCESS:          0  HIT:          0  MISS:          0
cpu0_L1I TRANSLATION ACCESS:          0  HIT:          0  MISS:          0
cpu0_L1I PREFETCH  REQUESTED:          0  ISSUED:          0  USEFUL:          0  USELESS:          0
cpu0_L1I AVERAGE MISS LATENCY: 197 cycles
cpu0_STLB TOTAL     ACCESS:    3818644  HIT:    1896057  MISS:    1922587
cpu0_STLB LOAD      ACCESS:    2622082  HIT:    1784430  MISS:     837652
cpu0_STLB RFO       ACCESS:    1196562  HIT:     111627  MISS:    1084935
cpu0_STLB PREFETCH  ACCESS:          0  HIT:          0  MISS:          0
cpu0_STLB WRITEBACK ACCESS:          0  HIT:          0  MISS:          0
cpu0_STLB TRANSLATION ACCESS:          0  HIT:          0  MISS:          0
cpu0_STLB PREFETCH  REQUESTED:          0  ISSUED:          0  USEFUL:          0  USELESS:          0
cpu0_STLB AVERAGE MISS LATENCY: 291.89 cycles
cpu0_L1D TOTAL     ACCESS:   35961341  HIT:   30108588  MISS:    5852753
cpu0_L1D LOAD      ACCESS:   24414279  HIT:   20483314  MISS:    3930965
cpu0_L1D RFO       ACCESS:   10121098  HIT:    8210439  MISS:    1910659
cpu0_L1D PREFETCH  ACCESS:          0  HIT:          0  MISS:          0
cpu0_L1D WRITEBACK ACCESS:          0  HIT:          0  MISS:          0
cpu0_L1D TRANSLATION ACCESS:    1425964  HIT:    1414835  MISS:      11129
cpu0_L1D PREFETCH  REQUESTED:          0  ISSUED:          0  USEFUL:          0  USELESS:          0
cpu0_L1D AVERAGE MISS LATENCY: 370.126 cycles
cpu0_L2C TOTAL     ACCESS:    8697463  HIT:    4509663  MISS:    4187800
cpu0_L2C LOAD      ACCESS:    3930957  HIT:    1549506  MISS:    2381451
cpu0_L2C RFO       ACCESS:    1910659  HIT:     106254  MISS:    1804405
cpu0_L2C PREFETCH  ACCESS:          0  HIT:          0  MISS:          0
cpu0_L2C WRITEBACK ACCESS:    2844718  HIT:    2844543  MISS:        175
cpu0_L2C TRANSLATION ACCESS:      11129  HIT:       9360  MISS:       1769
cpu0_L2C PREFETCH  REQUESTED:          0  ISSUED:          0  USEFUL:          0  USELESS:          0
cpu0_L2C AVERAGE MISS LATENCY: 501.87 cycles
LLC TOTAL     ACCESS:    6918165  HIT:    2632784  MISS:    4285381
LLC LOAD      ACCESS:    2381451  HIT:     480754  MISS:    1900697
LLC RFO       ACCESS:    1804403  HIT:     738811  MISS:    1065592
LLC PREFETCH  ACCESS:          0  HIT:          0  MISS:          0
LLC WRITEBACK ACCESS:    2730542  HIT:    1412116  MISS:    1318426
LLC TRANSLATION ACCESS:       1769  HIT:       1103  MISS:        666
LLC PREFETCH  REQUESTED:          0  ISSUED:          0  USEFUL:          0  USELESS:          0
LLC AVERAGE MISS LATENCY: 469.918 cycles
OPTgen accesses: 73114
OPTgen hits: 25817
OPTgen hit rate: 35.3106



DRAM Statistics
 CHANNEL 0
 RQ ROW_BUFFER_HIT:      25334  ROW_BUFFER_MISS:    2941206
 DBUS AVG_CONGESTED_CYCLE:    3.99813
 WQ ROW_BUFFER_HIT:     204916  ROW_BUFFER_MISS:    1390148  FULL:     124219


CPU 0 Branch Prediction Accuracy: 88.672% MPKI: 23.9003 Average ROB Occupancy at Mispredict: 22.8523
Branch type MPKI
BRANCH_DIRECT_JUMP: 1e-05
BRANCH_INDIRECT: 0
BRANCH_CONDITIONAL: 23.8999
BRANCH_DIRECT_CALL: 0
BRANCH_INDIRECT_CALL: 0.00038
BRANCH_RETURN: 0

