
*** ChampSim Multicore Out-of-Order Simulator ***

Warmup Instructions: 10000000
Simulation Instructions: 100000000
Number of CPUs: 1
Off-chip DRAM Size: 4 GiB Channels: 1 Width: 64-bit Data Rate: 3200 MT/s

VirtualMemory physical capacity: 8588881920 num_ppages: 2096895
VirtualMemory page size: 4096 log2_page_size: 12

CPU 0 runs /datasets/cs240c-wi22-a00-public/data/Assignment2/leslie3d_1186B.trace.xz
CPU 0 Bimodal branch predictor
Basic BTB sets: 1024 ways: 8 indirect buffer size: 4096 RAS size: 64
Initialize Hawkeye state
Heartbeat CPU 0 instructions: 10000000 cycles: 4308738 heartbeat IPC: 2.32087 cumulative IPC: 2.32087 (Simulation time: 0 hr 1 min 16 sec) 

Warmup complete CPU 0 instructions: 10000005 cycles: 4308739 (Simulation time: 0 hr 1 min 16 sec) 

Heartbeat CPU 0 instructions: 20000000 cycles: 17943336 heartbeat IPC: 0.733428 cumulative IPC: 0.733428 (Simulation time: 0 hr 3 min 27 sec) 
Heartbeat CPU 0 instructions: 30000000 cycles: 31379890 heartbeat IPC: 0.744238 cumulative IPC: 0.738794 (Simulation time: 0 hr 5 min 35 sec) 
Heartbeat CPU 0 instructions: 40000004 cycles: 44488134 heartbeat IPC: 0.762879 cumulative IPC: 0.746651 (Simulation time: 0 hr 7 min 41 sec) 
Heartbeat CPU 0 instructions: 50000001 cycles: 60659841 heartbeat IPC: 0.618364 cumulative IPC: 0.709835 (Simulation time: 0 hr 9 min 53 sec) 
Heartbeat CPU 0 instructions: 60000000 cycles: 96231261 heartbeat IPC: 0.281125 cumulative IPC: 0.543936 (Simulation time: 0 hr 13 min 48 sec) 
Heartbeat CPU 0 instructions: 70000000 cycles: 125131195 heartbeat IPC: 0.346022 cumulative IPC: 0.496596 (Simulation time: 0 hr 17 min 14 sec) 
Heartbeat CPU 0 instructions: 80000003 cycles: 135515810 heartbeat IPC: 0.962963 cumulative IPC: 0.533508 (Simulation time: 0 hr 19 min 10 sec) 
Heartbeat CPU 0 instructions: 90000002 cycles: 145800983 heartbeat IPC: 0.972273 cumulative IPC: 0.565402 (Simulation time: 0 hr 21 min 4 sec) 
Heartbeat CPU 0 instructions: 100000000 cycles: 156060896 heartbeat IPC: 0.974667 cumulative IPC: 0.593072 (Simulation time: 0 hr 22 min 59 sec) 
Heartbeat CPU 0 instructions: 110000000 cycles: 166408885 heartbeat IPC: 0.966371 cumulative IPC: 0.616903 (Simulation time: 0 hr 24 min 51 sec) 
Finished CPU 0 instructions: 100000000 cycles: 162100147 cumulative IPC: 0.616903 (Simulation time: 0 hr 24 min 51 sec) 

ChampSim completed all CPUs

Region of Interest Statistics

CPU 0 cumulative IPC: 0.616903 instructions: 100000000 cycles: 162100147
cpu0_DTLB TOTAL     ACCESS:   27970292  HIT:   27872629  MISS:      97663
cpu0_DTLB LOAD      ACCESS:   23296438  HIT:   23210526  MISS:      85912
cpu0_DTLB RFO       ACCESS:    4673854  HIT:    4662103  MISS:      11751
cpu0_DTLB PREFETCH  ACCESS:          0  HIT:          0  MISS:          0
cpu0_DTLB WRITEBACK ACCESS:          0  HIT:          0  MISS:          0
cpu0_DTLB TRANSLATION ACCESS:          0  HIT:          0  MISS:          0
cpu0_DTLB PREFETCH  REQUESTED:          0  ISSUED:          0  USEFUL:          0  USELESS:          0
cpu0_DTLB AVERAGE MISS LATENCY: 52.13 cycles
cpu0_ITLB TOTAL     ACCESS:    2878983  HIT:    2878970  MISS:         13
cpu0_ITLB LOAD      ACCESS:    2878983  HIT:    2878970  MISS:         13
cpu0_ITLB RFO       ACCESS:          0  HIT:          0  MISS:          0
cpu0_ITLB PREFETCH  ACCESS:          0  HIT:          0  MISS:          0
cpu0_ITLB WRITEBACK ACCESS:          0  HIT:          0  MISS:          0
cpu0_ITLB TRANSLATION ACCESS:          0  HIT:          0  MISS:          0
cpu0_ITLB PREFETCH  REQUESTED:          0  ISSUED:          0  USEFUL:          0  USELESS:          0
cpu0_ITLB AVERAGE MISS LATENCY: 300.538 cycles
cpu0_L1I TOTAL     ACCESS:    1735547  HIT:    1735167  MISS:        380
cpu0_L1I LOAD      ACCESS:    1735547  HIT:    1735167  MISS:        380
cpu0_L1I RFO       ACCESS:          0  HIT:          0  MISS:          0
cpu0_L1I PREFETCH  ACCESS:          0  HIT:          0  MISS:          0
cpu0_L1I WRITEBACK ACCESS:          0  HIT:          0  MISS:          0
cpu0_L1I TRANSLATION ACCESS:          0  HIT:          0  MISS:          0
cpu0_L1I PREFETCH  REQUESTED:          0  ISSUED:          0  USEFUL:          0  USELESS:          0
cpu0_L1I AVERAGE MISS LATENCY: 331.539 cycles
cpu0_STLB TOTAL     ACCESS:      97676  HIT:      70274  MISS:      27402
cpu0_STLB LOAD      ACCESS:      85925  HIT:      63198  MISS:      22727
cpu0_STLB RFO       ACCESS:      11751  HIT:       7076  MISS:       4675
cpu0_STLB PREFETCH  ACCESS:          0  HIT:          0  MISS:          0
cpu0_STLB WRITEBACK ACCESS:          0  HIT:          0  MISS:          0
cpu0_STLB TRANSLATION ACCESS:          0  HIT:          0  MISS:          0
cpu0_STLB PREFETCH  REQUESTED:          0  ISSUED:          0  USEFUL:          0  USELESS:          0
cpu0_STLB AVERAGE MISS LATENCY: 153.803 cycles
cpu0_L1D TOTAL     ACCESS:   27000207  HIT:   23097412  MISS:    3902795
cpu0_L1D LOAD      ACCESS:   17775973  HIT:   14592120  MISS:    3183853
cpu0_L1D RFO       ACCESS:    9199677  HIT:    8484177  MISS:     715500
cpu0_L1D PREFETCH  ACCESS:          0  HIT:          0  MISS:          0
cpu0_L1D WRITEBACK ACCESS:          0  HIT:          0  MISS:          0
cpu0_L1D TRANSLATION ACCESS:      24557  HIT:      21115  MISS:       3442
cpu0_L1D PREFETCH  REQUESTED:          0  ISSUED:          0  USEFUL:          0  USELESS:          0
cpu0_L1D AVERAGE MISS LATENCY: 355.652 cycles
cpu0_L2C TOTAL     ACCESS:    4956245  HIT:    2398758  MISS:    2557487
cpu0_L2C LOAD      ACCESS:    3184183  HIT:    1036786  MISS:    2147397
cpu0_L2C RFO       ACCESS:     715183  HIT:     307511  MISS:     407672
cpu0_L2C PREFETCH  ACCESS:          0  HIT:          0  MISS:          0
cpu0_L2C WRITEBACK ACCESS:    1053437  HIT:    1051230  MISS:       2207
cpu0_L2C TRANSLATION ACCESS:       3442  HIT:       3231  MISS:        211
cpu0_L2C PREFETCH  REQUESTED:          0  ISSUED:          0  USEFUL:          0  USELESS:          0
cpu0_L2C AVERAGE MISS LATENCY: 525.94 cycles
LLC TOTAL     ACCESS:    3217617  HIT:     859134  MISS:    2358483
LLC LOAD      ACCESS:    2147389  HIT:     548587  MISS:    1598802
LLC RFO       ACCESS:     407662  HIT:     107875  MISS:     299787
LLC PREFETCH  ACCESS:          0  HIT:          0  MISS:          0
LLC WRITEBACK ACCESS:     662355  HIT:     202582  MISS:     459773
LLC TRANSLATION ACCESS:        211  HIT:         90  MISS:        121
LLC PREFETCH  REQUESTED:          0  ISSUED:          0  USEFUL:          0  USELESS:          0
LLC AVERAGE MISS LATENCY: 547.525 cycles
OPTgen accesses: 43410
OPTgen hits: 13854
OPTgen hit rate: 31.9143



DRAM Statistics
 CHANNEL 0
 RQ ROW_BUFFER_HIT:     206688  ROW_BUFFER_MISS:    1691653
 DBUS AVG_CONGESTED_CYCLE:    3.95132
 WQ ROW_BUFFER_HIT:      40466  ROW_BUFFER_MISS:     505908  FULL:      19596


CPU 0 Branch Prediction Accuracy: 96.8384% MPKI: 1.47634 Average ROB Occupancy at Mispredict: 311.732
Branch type MPKI
BRANCH_DIRECT_JUMP: 0.00016
BRANCH_INDIRECT: 0
BRANCH_CONDITIONAL: 1.47504
BRANCH_DIRECT_CALL: 0.00057
BRANCH_INDIRECT_CALL: 0
BRANCH_RETURN: 0.00057

