
*** ChampSim Multicore Out-of-Order Simulator ***

Warmup Instructions: 10000000
Simulation Instructions: 100000000
Number of CPUs: 1
Off-chip DRAM Size: 4 GiB Channels: 1 Width: 64-bit Data Rate: 3200 MT/s

VirtualMemory physical capacity: 8588881920 num_ppages: 2096895
VirtualMemory page size: 4096 log2_page_size: 12

CPU 0 runs /datasets/cs240c-wi22-a00-public/data/Assignment2/GemsFDTD_716B.trace.xz
CPU 0 Bimodal branch predictor
Basic BTB sets: 1024 ways: 8 indirect buffer size: 4096 RAS size: 64
Initialize Hawkeye state
Heartbeat CPU 0 instructions: 10000004 cycles: 2536408 heartbeat IPC: 3.94258 cumulative IPC: 3.94258 (Simulation time: 0 hr 0 min 32 sec) 

Warmup complete CPU 0 instructions: 10000004 cycles: 2536408 (Simulation time: 0 hr 0 min 32 sec) 

Heartbeat CPU 0 instructions: 20000003 cycles: 24411673 heartbeat IPC: 0.457137 cumulative IPC: 0.457137 (Simulation time: 0 hr 2 min 53 sec) 
Heartbeat CPU 0 instructions: 30000002 cycles: 38023918 heartbeat IPC: 0.734633 cumulative IPC: 0.563578 (Simulation time: 0 hr 4 min 40 sec) 
Heartbeat CPU 0 instructions: 40000000 cycles: 49415047 heartbeat IPC: 0.877876 cumulative IPC: 0.63995 (Simulation time: 0 hr 6 min 19 sec) 
Heartbeat CPU 0 instructions: 50000002 cycles: 67396924 heartbeat IPC: 0.556116 cumulative IPC: 0.616708 (Simulation time: 0 hr 8 min 33 sec) 
Heartbeat CPU 0 instructions: 60000002 cycles: 83252778 heartbeat IPC: 0.630682 cumulative IPC: 0.619453 (Simulation time: 0 hr 10 min 33 sec) 
Heartbeat CPU 0 instructions: 70000004 cycles: 95483608 heartbeat IPC: 0.817606 cumulative IPC: 0.645528 (Simulation time: 0 hr 12 min 16 sec) 
Heartbeat CPU 0 instructions: 80000003 cycles: 109896120 heartbeat IPC: 0.693842 cumulative IPC: 0.652014 (Simulation time: 0 hr 14 min 10 sec) 
Heartbeat CPU 0 instructions: 90000001 cycles: 128264847 heartbeat IPC: 0.544403 cumulative IPC: 0.636292 (Simulation time: 0 hr 16 min 20 sec) 
Heartbeat CPU 0 instructions: 100000001 cycles: 141316332 heartbeat IPC: 0.766196 cumulative IPC: 0.648509 (Simulation time: 0 hr 18 min 8 sec) 
Heartbeat CPU 0 instructions: 110000004 cycles: 152885645 heartbeat IPC: 0.864356 cumulative IPC: 0.665118 (Simulation time: 0 hr 19 min 47 sec) 
Finished CPU 0 instructions: 100000000 cycles: 150349237 cumulative IPC: 0.665118 (Simulation time: 0 hr 19 min 47 sec) 

ChampSim completed all CPUs

Region of Interest Statistics

CPU 0 cumulative IPC: 0.665118 instructions: 100000000 cycles: 150349237
cpu0_DTLB TOTAL     ACCESS:   29891057  HIT:   26861268  MISS:    3029789
cpu0_DTLB LOAD      ACCESS:   20918344  HIT:   17889457  MISS:    3028887
cpu0_DTLB RFO       ACCESS:    8972713  HIT:    8971811  MISS:        902
cpu0_DTLB PREFETCH  ACCESS:          0  HIT:          0  MISS:          0
cpu0_DTLB WRITEBACK ACCESS:          0  HIT:          0  MISS:          0
cpu0_DTLB TRANSLATION ACCESS:          0  HIT:          0  MISS:          0
cpu0_DTLB PREFETCH  REQUESTED:          0  ISSUED:          0  USEFUL:          0  USELESS:          0
cpu0_DTLB AVERAGE MISS LATENCY: 13.8566 cycles
cpu0_ITLB TOTAL     ACCESS:    1847837  HIT:    1847835  MISS:          2
cpu0_ITLB LOAD      ACCESS:    1847837  HIT:    1847835  MISS:          2
cpu0_ITLB RFO       ACCESS:          0  HIT:          0  MISS:          0
cpu0_ITLB PREFETCH  ACCESS:          0  HIT:          0  MISS:          0
cpu0_ITLB WRITEBACK ACCESS:          0  HIT:          0  MISS:          0
cpu0_ITLB TRANSLATION ACCESS:          0  HIT:          0  MISS:          0
cpu0_ITLB PREFETCH  REQUESTED:          0  ISSUED:          0  USEFUL:          0  USELESS:          0
cpu0_ITLB AVERAGE MISS LATENCY: 470.5 cycles
cpu0_L1I TOTAL     ACCESS:    7856912  HIT:    7856790  MISS:        122
cpu0_L1I LOAD      ACCESS:    7856912  HIT:    7856790  MISS:        122
cpu0_L1I RFO       ACCESS:          0  HIT:          0  MISS:          0
cpu0_L1I PREFETCH  ACCESS:          0  HIT:          0  MISS:          0
cpu0_L1I WRITEBACK ACCESS:          0  HIT:          0  MISS:          0
cpu0_L1I TRANSLATION ACCESS:          0  HIT:          0  MISS:          0
cpu0_L1I PREFETCH  REQUESTED:          0  ISSUED:          0  USEFUL:          0  USELESS:          0
cpu0_L1I AVERAGE MISS LATENCY: 271.893 cycles
cpu0_STLB TOTAL     ACCESS:    3029792  HIT:    2757354  MISS:     272438
cpu0_STLB LOAD      ACCESS:    3028890  HIT:    2756452  MISS:     272438
cpu0_STLB RFO       ACCESS:        902  HIT:        902  MISS:          0
cpu0_STLB PREFETCH  ACCESS:          0  HIT:          0  MISS:          0
cpu0_STLB WRITEBACK ACCESS:          0  HIT:          0  MISS:          0
cpu0_STLB TRANSLATION ACCESS:          0  HIT:          0  MISS:          0
cpu0_STLB PREFETCH  REQUESTED:          0  ISSUED:          0  USEFUL:          0  USELESS:          0
cpu0_STLB AVERAGE MISS LATENCY: 51.6258 cycles
cpu0_L1D TOTAL     ACCESS:   34793316  HIT:   26550507  MISS:    8242809
cpu0_L1D LOAD      ACCESS:   22661215  HIT:   14442014  MISS:    8219201
cpu0_L1D RFO       ACCESS:   11865003  HIT:   11864997  MISS:          6
cpu0_L1D PREFETCH  ACCESS:          0  HIT:          0  MISS:          0
cpu0_L1D WRITEBACK ACCESS:          0  HIT:          0  MISS:          0
cpu0_L1D TRANSLATION ACCESS:     267098  HIT:     243496  MISS:      23602
cpu0_L1D PREFETCH  REQUESTED:          0  ISSUED:          0  USEFUL:          0  USELESS:          0
cpu0_L1D AVERAGE MISS LATENCY: 68.5313 cycles
cpu0_L2C TOTAL     ACCESS:    9425515  HIT:    7964198  MISS:    1461317
cpu0_L2C LOAD      ACCESS:    8219323  HIT:    6758626  MISS:    1460697
cpu0_L2C RFO       ACCESS:          6  HIT:          6  MISS:          0
cpu0_L2C PREFETCH  ACCESS:          0  HIT:          0  MISS:          0
cpu0_L2C WRITEBACK ACCESS:    1182584  HIT:    1182548  MISS:         36
cpu0_L2C TRANSLATION ACCESS:      23602  HIT:      23018  MISS:        584
cpu0_L2C PREFETCH  REQUESTED:          0  ISSUED:          0  USEFUL:          0  USELESS:          0
cpu0_L2C AVERAGE MISS LATENCY: 322.578 cycles
LLC TOTAL     ACCESS:    1476736  HIT:      54273  MISS:    1422463
LLC LOAD      ACCESS:    1460685  HIT:      40534  MISS:    1420151
LLC RFO       ACCESS:          0  HIT:          0  MISS:          0
LLC PREFETCH  ACCESS:          0  HIT:          0  MISS:          0
LLC WRITEBACK ACCESS:      15467  HIT:      13529  MISS:       1938
LLC TRANSLATION ACCESS:        584  HIT:        210  MISS:        374
LLC PREFETCH  REQUESTED:          0  ISSUED:          0  USEFUL:          0  USELESS:          0
LLC AVERAGE MISS LATENCY: 309.816 cycles
OPTgen accesses: 24390
OPTgen hits: 1395
OPTgen hit rate: 5.71956



DRAM Statistics
 CHANNEL 0
 RQ ROW_BUFFER_HIT:         67  ROW_BUFFER_MISS:    1420364
 DBUS AVG_CONGESTED_CYCLE:    3.94746
 WQ ROW_BUFFER_HIT:        794  ROW_BUFFER_MISS:       5367  FULL:          0


CPU 0 Branch Prediction Accuracy: 98.9038% MPKI: 0.06477 Average ROB Occupancy at Mispredict: 248.698
Branch type MPKI
BRANCH_DIRECT_JUMP: 0
BRANCH_INDIRECT: 0
BRANCH_CONDITIONAL: 0.06477
BRANCH_DIRECT_CALL: 0
BRANCH_INDIRECT_CALL: 0
BRANCH_RETURN: 0

