
*** ChampSim Multicore Out-of-Order Simulator ***

Warmup Instructions: 10000000
Simulation Instructions: 100000000
Number of CPUs: 1
Off-chip DRAM Size: 4 GiB Channels: 1 Width: 64-bit Data Rate: 3200 MT/s

VirtualMemory physical capacity: 8588881920 num_ppages: 2096895
VirtualMemory page size: 4096 log2_page_size: 12

CPU 0 runs /datasets/cs240c-wi22-a00-public/data/Assignment2/soplex_66B.trace.xz
CPU 0 Bimodal branch predictor
Basic BTB sets: 1024 ways: 8 indirect buffer size: 4096 RAS size: 64
Initialize Hawkeye state
Heartbeat CPU 0 instructions: 10000001 cycles: 2688403 heartbeat IPC: 3.71968 cumulative IPC: 3.71968 (Simulation time: 0 hr 0 min 30 sec) 

Warmup complete CPU 0 instructions: 10000001 cycles: 2688403 (Simulation time: 0 hr 0 min 30 sec) 

Heartbeat CPU 0 instructions: 20000003 cycles: 27123709 heartbeat IPC: 0.409244 cumulative IPC: 0.409244 (Simulation time: 0 hr 1 min 46 sec) 
Heartbeat CPU 0 instructions: 30000001 cycles: 52777765 heartbeat IPC: 0.389802 cumulative IPC: 0.399286 (Simulation time: 0 hr 3 min 12 sec) 
Heartbeat CPU 0 instructions: 40000002 cycles: 78156000 heartbeat IPC: 0.394038 cumulative IPC: 0.397522 (Simulation time: 0 hr 4 min 29 sec) 
Heartbeat CPU 0 instructions: 50000002 cycles: 113047775 heartbeat IPC: 0.286601 cumulative IPC: 0.362452 (Simulation time: 0 hr 6 min 24 sec) 
Heartbeat CPU 0 instructions: 60000002 cycles: 146830579 heartbeat IPC: 0.296009 cumulative IPC: 0.34688 (Simulation time: 0 hr 8 min 7 sec) 
Heartbeat CPU 0 instructions: 70000001 cycles: 173706009 heartbeat IPC: 0.372087 cumulative IPC: 0.350841 (Simulation time: 0 hr 9 min 27 sec) 
Heartbeat CPU 0 instructions: 80000001 cycles: 201147078 heartbeat IPC: 0.364417 cumulative IPC: 0.352718 (Simulation time: 0 hr 10 min 55 sec) 
Heartbeat CPU 0 instructions: 90000003 cycles: 226228967 heartbeat IPC: 0.398694 cumulative IPC: 0.357877 (Simulation time: 0 hr 12 min 12 sec) 
Heartbeat CPU 0 instructions: 100000000 cycles: 251998271 heartbeat IPC: 0.388058 cumulative IPC: 0.360997 (Simulation time: 0 hr 13 min 32 sec) 
Heartbeat CPU 0 instructions: 110000001 cycles: 277767833 heartbeat IPC: 0.388055 cumulative IPC: 0.363531 (Simulation time: 0 hr 14 min 55 sec) 
Finished CPU 0 instructions: 100000000 cycles: 275079430 cumulative IPC: 0.363531 (Simulation time: 0 hr 14 min 55 sec) 

ChampSim completed all CPUs

Region of Interest Statistics

CPU 0 cumulative IPC: 0.363531 instructions: 100000000 cycles: 275079430
cpu0_DTLB TOTAL     ACCESS:   19887659  HIT:   19310167  MISS:     577492
cpu0_DTLB LOAD      ACCESS:   14824896  HIT:   14367603  MISS:     457293
cpu0_DTLB RFO       ACCESS:    5062763  HIT:    4942564  MISS:     120199
cpu0_DTLB PREFETCH  ACCESS:          0  HIT:          0  MISS:          0
cpu0_DTLB WRITEBACK ACCESS:          0  HIT:          0  MISS:          0
cpu0_DTLB TRANSLATION ACCESS:          0  HIT:          0  MISS:          0
cpu0_DTLB PREFETCH  REQUESTED:          0  ISSUED:          0  USEFUL:          0  USELESS:          0
cpu0_DTLB AVERAGE MISS LATENCY: 17.1458 cycles
cpu0_ITLB TOTAL     ACCESS:    8276516  HIT:    8276498  MISS:         18
cpu0_ITLB LOAD      ACCESS:    8276516  HIT:    8276498  MISS:         18
cpu0_ITLB RFO       ACCESS:          0  HIT:          0  MISS:          0
cpu0_ITLB PREFETCH  ACCESS:          0  HIT:          0  MISS:          0
cpu0_ITLB WRITEBACK ACCESS:          0  HIT:          0  MISS:          0
cpu0_ITLB TRANSLATION ACCESS:          0  HIT:          0  MISS:          0
cpu0_ITLB PREFETCH  REQUESTED:          0  ISSUED:          0  USEFUL:          0  USELESS:          0
cpu0_ITLB AVERAGE MISS LATENCY: 245.167 cycles
cpu0_L1I TOTAL     ACCESS:    1902349  HIT:    1901492  MISS:        857
cpu0_L1I LOAD      ACCESS:    1902349  HIT:    1901492  MISS:        857
cpu0_L1I RFO       ACCESS:          0  HIT:          0  MISS:          0
cpu0_L1I PREFETCH  ACCESS:          0  HIT:          0  MISS:          0
cpu0_L1I WRITEBACK ACCESS:          0  HIT:          0  MISS:          0
cpu0_L1I TRANSLATION ACCESS:          0  HIT:          0  MISS:          0
cpu0_L1I PREFETCH  REQUESTED:          0  ISSUED:          0  USEFUL:          0  USELESS:          0
cpu0_L1I AVERAGE MISS LATENCY: 262.722 cycles
cpu0_STLB TOTAL     ACCESS:     577510  HIT:     474589  MISS:     102921
cpu0_STLB LOAD      ACCESS:     457311  HIT:     362229  MISS:      95082
cpu0_STLB RFO       ACCESS:     120199  HIT:     112360  MISS:       7839
cpu0_STLB PREFETCH  ACCESS:          0  HIT:          0  MISS:          0
cpu0_STLB WRITEBACK ACCESS:          0  HIT:          0  MISS:          0
cpu0_STLB TRANSLATION ACCESS:          0  HIT:          0  MISS:          0
cpu0_STLB PREFETCH  REQUESTED:          0  ISSUED:          0  USEFUL:          0  USELESS:          0
cpu0_STLB AVERAGE MISS LATENCY: 45.1594 cycles
cpu0_L1D TOTAL     ACCESS:   17123339  HIT:   12806311  MISS:    4317028
cpu0_L1D LOAD      ACCESS:   11121428  HIT:    7523134  MISS:    3598294
cpu0_L1D RFO       ACCESS:    5901822  HIT:    5185731  MISS:     716091
cpu0_L1D PREFETCH  ACCESS:          0  HIT:          0  MISS:          0
cpu0_L1D WRITEBACK ACCESS:          0  HIT:          0  MISS:          0
cpu0_L1D TRANSLATION ACCESS:     100089  HIT:      97446  MISS:       2643
cpu0_L1D PREFETCH  REQUESTED:          0  ISSUED:          0  USEFUL:          0  USELESS:          0
cpu0_L1D AVERAGE MISS LATENCY: 224.22 cycles
cpu0_L2C TOTAL     ACCESS:    6105349  HIT:    2607925  MISS:    3497424
cpu0_L2C LOAD      ACCESS:    3599016  HIT:     717224  MISS:    2881792
cpu0_L2C RFO       ACCESS:     716026  HIT:     101659  MISS:     614367
cpu0_L2C PREFETCH  ACCESS:          0  HIT:          0  MISS:          0
cpu0_L2C WRITEBACK ACCESS:    1787664  HIT:    1787124  MISS:        540
cpu0_L2C TRANSLATION ACCESS:       2643  HIT:       1918  MISS:        725
cpu0_L2C PREFETCH  REQUESTED:          0  ISSUED:          0  USEFUL:          0  USELESS:          0
cpu0_L2C AVERAGE MISS LATENCY: 263.063 cycles
LLC TOTAL     ACCESS:    4877113  HIT:    2389711  MISS:    2487402
LLC LOAD      ACCESS:    2881776  HIT:    1192666  MISS:    1689110
LLC RFO       ACCESS:     614367  HIT:     236372  MISS:     377995
LLC PREFETCH  ACCESS:          0  HIT:          0  MISS:          0
LLC WRITEBACK ACCESS:    1380245  HIT:     960291  MISS:     419954
LLC TRANSLATION ACCESS:        725  HIT:        382  MISS:        343
LLC PREFETCH  REQUESTED:          0  ISSUED:          0  USEFUL:          0  USELESS:          0
LLC AVERAGE MISS LATENCY: 339.119 cycles
OPTgen accesses: 59979
OPTgen hits: 29936
OPTgen hit rate: 49.9108



DRAM Statistics
 CHANNEL 0
 RQ ROW_BUFFER_HIT:     301255  ROW_BUFFER_MISS:    1764679
 DBUS AVG_CONGESTED_CYCLE:    3.95467
 WQ ROW_BUFFER_HIT:      64638  ROW_BUFFER_MISS:     768567  FULL:     771019


CPU 0 Branch Prediction Accuracy: 91.9788% MPKI: 17.5693 Average ROB Occupancy at Mispredict: 27.6216
Branch type MPKI
BRANCH_DIRECT_JUMP: 0.00093
BRANCH_INDIRECT: 0.00028
BRANCH_CONDITIONAL: 17.5659
BRANCH_DIRECT_CALL: 0.00064
BRANCH_INDIRECT_CALL: 0.00043
BRANCH_RETURN: 0.00108

