
*** ChampSim Multicore Out-of-Order Simulator ***

Warmup Instructions: 10000000
Simulation Instructions: 100000000
Number of CPUs: 1
Off-chip DRAM Size: 4 GiB Channels: 1 Width: 64-bit Data Rate: 3200 MT/s

VirtualMemory physical capacity: 8588881920 num_ppages: 2096895
VirtualMemory page size: 4096 log2_page_size: 12

CPU 0 runs /datasets/cs240c-wi22-a00-public/data/Assignment2/GemsFDTD_712B.trace.xz
CPU 0 Bimodal branch predictor
Basic BTB sets: 1024 ways: 8 indirect buffer size: 4096 RAS size: 64
Initialize Hawkeye state
Heartbeat CPU 0 instructions: 10000003 cycles: 4479620 heartbeat IPC: 2.23233 cumulative IPC: 2.23233 (Simulation time: 0 hr 1 min 3 sec) 

Warmup complete CPU 0 instructions: 10000003 cycles: 4479620 (Simulation time: 0 hr 1 min 3 sec) 

Heartbeat CPU 0 instructions: 20000001 cycles: 44092478 heartbeat IPC: 0.252443 cumulative IPC: 0.252443 (Simulation time: 0 hr 4 min 54 sec) 
Heartbeat CPU 0 instructions: 30000001 cycles: 84102987 heartbeat IPC: 0.249934 cumulative IPC: 0.251183 (Simulation time: 0 hr 8 min 39 sec) 
Heartbeat CPU 0 instructions: 40000004 cycles: 123976308 heartbeat IPC: 0.250794 cumulative IPC: 0.251053 (Simulation time: 0 hr 12 min 33 sec) 
Heartbeat CPU 0 instructions: 50000002 cycles: 163598275 heartbeat IPC: 0.252385 cumulative IPC: 0.251385 (Simulation time: 0 hr 16 min 14 sec) 
Heartbeat CPU 0 instructions: 60000003 cycles: 203888787 heartbeat IPC: 0.248197 cumulative IPC: 0.250741 (Simulation time: 0 hr 19 min 56 sec) 
Heartbeat CPU 0 instructions: 70000002 cycles: 243736077 heartbeat IPC: 0.250958 cumulative IPC: 0.250777 (Simulation time: 0 hr 23 min 43 sec) 
Heartbeat CPU 0 instructions: 80000000 cycles: 278360598 heartbeat IPC: 0.288813 cumulative IPC: 0.255585 (Simulation time: 0 hr 26 min 18 sec) 
Heartbeat CPU 0 instructions: 90000000 cycles: 313295945 heartbeat IPC: 0.286243 cumulative IPC: 0.259054 (Simulation time: 0 hr 28 min 48 sec) 
Heartbeat CPU 0 instructions: 100000001 cycles: 348048839 heartbeat IPC: 0.287746 cumulative IPC: 0.261956 (Simulation time: 0 hr 31 min 15 sec) 
Heartbeat CPU 0 instructions: 110000002 cycles: 382728277 heartbeat IPC: 0.288355 cumulative IPC: 0.264376 (Simulation time: 0 hr 33 min 40 sec) 
Finished CPU 0 instructions: 100000004 cycles: 378248658 cumulative IPC: 0.264376 (Simulation time: 0 hr 33 min 40 sec) 

ChampSim completed all CPUs

Region of Interest Statistics

CPU 0 cumulative IPC: 0.264376 instructions: 100000004 cycles: 378248658
cpu0_DTLB TOTAL     ACCESS:   29840445  HIT:   29637799  MISS:     202646
cpu0_DTLB LOAD      ACCESS:   23898327  HIT:   23695681  MISS:     202646
cpu0_DTLB RFO       ACCESS:    5942118  HIT:    5942118  MISS:          0
cpu0_DTLB PREFETCH  ACCESS:          0  HIT:          0  MISS:          0
cpu0_DTLB WRITEBACK ACCESS:          0  HIT:          0  MISS:          0
cpu0_DTLB TRANSLATION ACCESS:          0  HIT:          0  MISS:          0
cpu0_DTLB PREFETCH  REQUESTED:          0  ISSUED:          0  USEFUL:          0  USELESS:          0
cpu0_DTLB AVERAGE MISS LATENCY: 158.124 cycles
cpu0_ITLB TOTAL     ACCESS:    1685944  HIT:    1685938  MISS:          6
cpu0_ITLB LOAD      ACCESS:    1685944  HIT:    1685938  MISS:          6
cpu0_ITLB RFO       ACCESS:          0  HIT:          0  MISS:          0
cpu0_ITLB PREFETCH  ACCESS:          0  HIT:          0  MISS:          0
cpu0_ITLB WRITEBACK ACCESS:          0  HIT:          0  MISS:          0
cpu0_ITLB TRANSLATION ACCESS:          0  HIT:          0  MISS:          0
cpu0_ITLB PREFETCH  REQUESTED:          0  ISSUED:          0  USEFUL:          0  USELESS:          0
cpu0_ITLB AVERAGE MISS LATENCY: 286 cycles
cpu0_L1I TOTAL     ACCESS:    3165603  HIT:    3165508  MISS:         95
cpu0_L1I LOAD      ACCESS:    3165603  HIT:    3165508  MISS:         95
cpu0_L1I RFO       ACCESS:          0  HIT:          0  MISS:          0
cpu0_L1I PREFETCH  ACCESS:          0  HIT:          0  MISS:          0
cpu0_L1I WRITEBACK ACCESS:          0  HIT:          0  MISS:          0
cpu0_L1I TRANSLATION ACCESS:          0  HIT:          0  MISS:          0
cpu0_L1I PREFETCH  REQUESTED:          0  ISSUED:          0  USEFUL:          0  USELESS:          0
cpu0_L1I AVERAGE MISS LATENCY: 443.674 cycles
cpu0_STLB TOTAL     ACCESS:     202652  HIT:      49544  MISS:     153108
cpu0_STLB LOAD      ACCESS:     202652  HIT:      49544  MISS:     153108
cpu0_STLB RFO       ACCESS:          0  HIT:          0  MISS:          0
cpu0_STLB PREFETCH  ACCESS:          0  HIT:          0  MISS:          0
cpu0_STLB WRITEBACK ACCESS:          0  HIT:          0  MISS:          0
cpu0_STLB TRANSLATION ACCESS:          0  HIT:          0  MISS:          0
cpu0_STLB PREFETCH  REQUESTED:          0  ISSUED:          0  USEFUL:          0  USELESS:          0
cpu0_STLB AVERAGE MISS LATENCY: 197.317 cycles
cpu0_L1D TOTAL     ACCESS:   29762606  HIT:   26414549  MISS:    3348057
cpu0_L1D LOAD      ACCESS:   18530673  HIT:   15184817  MISS:    3345856
cpu0_L1D RFO       ACCESS:   11079382  HIT:   11079362  MISS:         20
cpu0_L1D PREFETCH  ACCESS:          0  HIT:          0  MISS:          0
cpu0_L1D WRITEBACK ACCESS:          0  HIT:          0  MISS:          0
cpu0_L1D TRANSLATION ACCESS:     152551  HIT:     150370  MISS:       2181
cpu0_L1D PREFETCH  REQUESTED:          0  ISSUED:          0  USEFUL:          0  USELESS:          0
cpu0_L1D AVERAGE MISS LATENCY: 679.153 cycles
cpu0_L2C TOTAL     ACCESS:    4725123  HIT:    1561824  MISS:    3163299
cpu0_L2C LOAD      ACCESS:    3345951  HIT:     182761  MISS:    3163190
cpu0_L2C RFO       ACCESS:         20  HIT:          0  MISS:         20
cpu0_L2C PREFETCH  ACCESS:          0  HIT:          0  MISS:          0
cpu0_L2C WRITEBACK ACCESS:    1376971  HIT:    1376967  MISS:          4
cpu0_L2C TRANSLATION ACCESS:       2181  HIT:       2096  MISS:         85
cpu0_L2C PREFETCH  REQUESTED:          0  ISSUED:          0  USEFUL:          0  USELESS:          0
cpu0_L2C AVERAGE MISS LATENCY: 707.167 cycles
LLC TOTAL     ACCESS:    4538803  HIT:     679371  MISS:    3859432
LLC LOAD      ACCESS:    3163190  HIT:     592548  MISS:    2570642
LLC RFO       ACCESS:         20  HIT:          0  MISS:         20
LLC PREFETCH  ACCESS:          0  HIT:          0  MISS:          0
LLC WRITEBACK ACCESS:    1375508  HIT:      86783  MISS:    1288725
LLC TRANSLATION ACCESS:         85  HIT:         40  MISS:         45
LLC PREFETCH  REQUESTED:          0  ISSUED:          0  USEFUL:          0  USELESS:          0
LLC AVERAGE MISS LATENCY: 562.402 cycles
OPTgen accesses: 55335
OPTgen hits: 11744
OPTgen hit rate: 21.2235



DRAM Statistics
 CHANNEL 0
 RQ ROW_BUFFER_HIT:       8707  ROW_BUFFER_MISS:    2562000
 DBUS AVG_CONGESTED_CYCLE:    3.99784
 WQ ROW_BUFFER_HIT:      18524  ROW_BUFFER_MISS:    1361771  FULL:          0


CPU 0 Branch Prediction Accuracy: 90.9863% MPKI: 1.62566 Average ROB Occupancy at Mispredict: 227.479
Branch type MPKI
BRANCH_DIRECT_JUMP: 5e-05
BRANCH_INDIRECT: 0
BRANCH_CONDITIONAL: 1.62559
BRANCH_DIRECT_CALL: 1e-05
BRANCH_INDIRECT_CALL: 0
BRANCH_RETURN: 1e-05

