
*** ChampSim Multicore Out-of-Order Simulator ***

Warmup Instructions: 10000000
Simulation Instructions: 100000000
Number of CPUs: 1
Off-chip DRAM Size: 4 GiB Channels: 1 Width: 64-bit Data Rate: 3200 MT/s

VirtualMemory physical capacity: 8588881920 num_ppages: 2096895
VirtualMemory page size: 4096 log2_page_size: 12

CPU 0 runs /datasets/cs240c-wi22-a00-public/data/Assignment2/milc_360B.trace.xz
CPU 0 Bimodal branch predictor
Basic BTB sets: 1024 ways: 8 indirect buffer size: 4096 RAS size: 64
Initialize Hawkeye state
Heartbeat CPU 0 instructions: 10000001 cycles: 2500103 heartbeat IPC: 3.99984 cumulative IPC: 3.99984 (Simulation time: 0 hr 0 min 30 sec) 

Warmup complete CPU 0 instructions: 10000001 cycles: 2500103 (Simulation time: 0 hr 0 min 30 sec) 

Heartbeat CPU 0 instructions: 20000000 cycles: 20089490 heartbeat IPC: 0.568525 cumulative IPC: 0.568525 (Simulation time: 0 hr 2 min 13 sec) 
Heartbeat CPU 0 instructions: 30000004 cycles: 37602865 heartbeat IPC: 0.570992 cumulative IPC: 0.569756 (Simulation time: 0 hr 4 min 3 sec) 
Heartbeat CPU 0 instructions: 40000001 cycles: 55135751 heartbeat IPC: 0.570357 cumulative IPC: 0.569956 (Simulation time: 0 hr 5 min 57 sec) 
Heartbeat CPU 0 instructions: 50000001 cycles: 75777362 heartbeat IPC: 0.484458 cumulative IPC: 0.545872 (Simulation time: 0 hr 8 min 23 sec) 
Heartbeat CPU 0 instructions: 60000000 cycles: 94986685 heartbeat IPC: 0.520581 cumulative IPC: 0.540619 (Simulation time: 0 hr 10 min 15 sec) 
Heartbeat CPU 0 instructions: 70000000 cycles: 114387669 heartbeat IPC: 0.515438 cumulative IPC: 0.536253 (Simulation time: 0 hr 12 min 6 sec) 
Heartbeat CPU 0 instructions: 80000000 cycles: 131173582 heartbeat IPC: 0.595738 cumulative IPC: 0.544013 (Simulation time: 0 hr 13 min 54 sec) 
Heartbeat CPU 0 instructions: 90000000 cycles: 147356955 heartbeat IPC: 0.617918 cumulative IPC: 0.552269 (Simulation time: 0 hr 15 min 36 sec) 
Heartbeat CPU 0 instructions: 100000002 cycles: 163592450 heartbeat IPC: 0.615935 cumulative IPC: 0.558686 (Simulation time: 0 hr 17 min 15 sec) 
Heartbeat CPU 0 instructions: 110000003 cycles: 179897405 heartbeat IPC: 0.613311 cumulative IPC: 0.563706 (Simulation time: 0 hr 18 min 52 sec) 
Finished CPU 0 instructions: 100000002 cycles: 177397302 cumulative IPC: 0.563706 (Simulation time: 0 hr 18 min 52 sec) 

ChampSim completed all CPUs

Region of Interest Statistics

CPU 0 cumulative IPC: 0.563706 instructions: 100000002 cycles: 177397302
cpu0_DTLB TOTAL     ACCESS:   15534691  HIT:   15319944  MISS:     214747
cpu0_DTLB LOAD      ACCESS:    9105959  HIT:    8893427  MISS:     212532
cpu0_DTLB RFO       ACCESS:    6428732  HIT:    6426517  MISS:       2215
cpu0_DTLB PREFETCH  ACCESS:          0  HIT:          0  MISS:          0
cpu0_DTLB WRITEBACK ACCESS:          0  HIT:          0  MISS:          0
cpu0_DTLB TRANSLATION ACCESS:          0  HIT:          0  MISS:          0
cpu0_DTLB PREFETCH  REQUESTED:          0  ISSUED:          0  USEFUL:          0  USELESS:          0
cpu0_DTLB AVERAGE MISS LATENCY: 83.7932 cycles
cpu0_ITLB TOTAL     ACCESS:    2730847  HIT:    2730844  MISS:          3
cpu0_ITLB LOAD      ACCESS:    2730847  HIT:    2730844  MISS:          3
cpu0_ITLB RFO       ACCESS:          0  HIT:          0  MISS:          0
cpu0_ITLB PREFETCH  ACCESS:          0  HIT:          0  MISS:          0
cpu0_ITLB WRITEBACK ACCESS:          0  HIT:          0  MISS:          0
cpu0_ITLB TRANSLATION ACCESS:          0  HIT:          0  MISS:          0
cpu0_ITLB PREFETCH  REQUESTED:          0  ISSUED:          0  USEFUL:          0  USELESS:          0
cpu0_ITLB AVERAGE MISS LATENCY: 520.333 cycles
cpu0_L1I TOTAL     ACCESS:    6942953  HIT:    6942925  MISS:         28
cpu0_L1I LOAD      ACCESS:    6942953  HIT:    6942925  MISS:         28
cpu0_L1I RFO       ACCESS:          0  HIT:          0  MISS:          0
cpu0_L1I PREFETCH  ACCESS:          0  HIT:          0  MISS:          0
cpu0_L1I WRITEBACK ACCESS:          0  HIT:          0  MISS:          0
cpu0_L1I TRANSLATION ACCESS:          0  HIT:          0  MISS:          0
cpu0_L1I PREFETCH  REQUESTED:          0  ISSUED:          0  USEFUL:          0  USELESS:          0
cpu0_L1I AVERAGE MISS LATENCY: 221.214 cycles
cpu0_STLB TOTAL     ACCESS:     214750  HIT:        127  MISS:     214623
cpu0_STLB LOAD      ACCESS:     212535  HIT:        101  MISS:     212434
cpu0_STLB RFO       ACCESS:       2215  HIT:         26  MISS:       2189
cpu0_STLB PREFETCH  ACCESS:          0  HIT:          0  MISS:          0
cpu0_STLB WRITEBACK ACCESS:          0  HIT:          0  MISS:          0
cpu0_STLB TRANSLATION ACCESS:          0  HIT:          0  MISS:          0
cpu0_STLB PREFETCH  REQUESTED:          0  ISSUED:          0  USEFUL:          0  USELESS:          0
cpu0_STLB AVERAGE MISS LATENCY: 74.8422 cycles
cpu0_L1D TOTAL     ACCESS:   24607567  HIT:   22511176  MISS:    2096391
cpu0_L1D LOAD      ACCESS:    6431985  HIT:    4475987  MISS:    1955998
cpu0_L1D RFO       ACCESS:   17961400  HIT:   17821391  MISS:     140009
cpu0_L1D PREFETCH  ACCESS:          0  HIT:          0  MISS:          0
cpu0_L1D WRITEBACK ACCESS:          0  HIT:          0  MISS:          0
cpu0_L1D TRANSLATION ACCESS:     214182  HIT:     213798  MISS:        384
cpu0_L1D PREFETCH  REQUESTED:          0  ISSUED:          0  USEFUL:          0  USELESS:          0
cpu0_L1D AVERAGE MISS LATENCY: 338.016 cycles
cpu0_L2C TOTAL     ACCESS:    2839086  HIT:     742662  MISS:    2096424
cpu0_L2C LOAD      ACCESS:    1956026  HIT:          0  MISS:    1956026
cpu0_L2C RFO       ACCESS:     140009  HIT:          0  MISS:     140009
cpu0_L2C PREFETCH  ACCESS:          0  HIT:          0  MISS:          0
cpu0_L2C WRITEBACK ACCESS:     742667  HIT:     742660  MISS:          7
cpu0_L2C TRANSLATION ACCESS:        384  HIT:          2  MISS:        382
cpu0_L2C PREFETCH  REQUESTED:          0  ISSUED:          0  USEFUL:          0  USELESS:          0
cpu0_L2C AVERAGE MISS LATENCY: 326.912 cycles
LLC TOTAL     ACCESS:    2839080  HIT:      95780  MISS:    2743300
LLC LOAD      ACCESS:    1956026  HIT:      23998  MISS:    1932028
LLC RFO       ACCESS:     140009  HIT:         29  MISS:     139980
LLC PREFETCH  ACCESS:          0  HIT:          0  MISS:          0
LLC WRITEBACK ACCESS:     742663  HIT:      71728  MISS:     670935
LLC TRANSLATION ACCESS:        382  HIT:         25  MISS:        357
LLC PREFETCH  REQUESTED:          0  ISSUED:          0  USEFUL:          0  USELESS:          0
LLC AVERAGE MISS LATENCY: 233.778 cycles
OPTgen accesses: 35233
OPTgen hits: 678
OPTgen hit rate: 1.92433



DRAM Statistics
 CHANNEL 0
 RQ ROW_BUFFER_HIT:     363535  ROW_BUFFER_MISS:    1708826
 DBUS AVG_CONGESTED_CYCLE:    3.94444
 WQ ROW_BUFFER_HIT:      37706  ROW_BUFFER_MISS:     685493  FULL:          0


CPU 0 Branch Prediction Accuracy: 99.9991% MPKI: 0.00037 Average ROB Occupancy at Mispredict: 88.1081
Branch type MPKI
BRANCH_DIRECT_JUMP: 4e-05
BRANCH_INDIRECT: 0
BRANCH_CONDITIONAL: 0.00015
BRANCH_DIRECT_CALL: 9e-05
BRANCH_INDIRECT_CALL: 0
BRANCH_RETURN: 9e-05

