
*** ChampSim Multicore Out-of-Order Simulator ***

Warmup Instructions: 10000000
Simulation Instructions: 100000000
Number of CPUs: 1
Off-chip DRAM Size: 4 GiB Channels: 1 Width: 64-bit Data Rate: 3200 MT/s

VirtualMemory physical capacity: 8588881920 num_ppages: 2096895
VirtualMemory page size: 4096 log2_page_size: 12

CPU 0 runs /datasets/cs240c-wi22-a00-public/data/Assignment2/bzip2_259B.trace.xz
CPU 0 Bimodal branch predictor
Basic BTB sets: 1024 ways: 8 indirect buffer size: 4096 RAS size: 64
Initialize Hawkeye state
Heartbeat CPU 0 instructions: 10000002 cycles: 2535454 heartbeat IPC: 3.94407 cumulative IPC: 3.94407 (Simulation time: 0 hr 0 min 26 sec) 

Warmup complete CPU 0 instructions: 10000002 cycles: 2535454 (Simulation time: 0 hr 0 min 26 sec) 

Heartbeat CPU 0 instructions: 20000003 cycles: 8796584 heartbeat IPC: 1.59716 cumulative IPC: 1.59716 (Simulation time: 0 hr 1 min 21 sec) 
Heartbeat CPU 0 instructions: 30000002 cycles: 14346531 heartbeat IPC: 1.80182 cumulative IPC: 1.69333 (Simulation time: 0 hr 2 min 7 sec) 
Heartbeat CPU 0 instructions: 40000003 cycles: 21105370 heartbeat IPC: 1.47954 cumulative IPC: 1.61552 (Simulation time: 0 hr 2 min 44 sec) 
Heartbeat CPU 0 instructions: 50000003 cycles: 29308114 heartbeat IPC: 1.2191 cumulative IPC: 1.49406 (Simulation time: 0 hr 3 min 9 sec) 
Heartbeat CPU 0 instructions: 60000001 cycles: 37174691 heartbeat IPC: 1.2712 cumulative IPC: 1.44345 (Simulation time: 0 hr 3 min 35 sec) 
Heartbeat CPU 0 instructions: 70000004 cycles: 43700149 heartbeat IPC: 1.53246 cumulative IPC: 1.45756 (Simulation time: 0 hr 4 min 27 sec) 
Heartbeat CPU 0 instructions: 80000004 cycles: 50599579 heartbeat IPC: 1.4494 cumulative IPC: 1.45639 (Simulation time: 0 hr 5 min 22 sec) 
Heartbeat CPU 0 instructions: 90000001 cycles: 56938987 heartbeat IPC: 1.57743 cumulative IPC: 1.47049 (Simulation time: 0 hr 6 min 3 sec) 
Heartbeat CPU 0 instructions: 100000000 cycles: 65336336 heartbeat IPC: 1.19085 cumulative IPC: 1.4331 (Simulation time: 0 hr 6 min 32 sec) 
Heartbeat CPU 0 instructions: 110000000 cycles: 73312715 heartbeat IPC: 1.2537 cumulative IPC: 1.41288 (Simulation time: 0 hr 6 min 58 sec) 
Finished CPU 0 instructions: 100000003 cycles: 70777266 cumulative IPC: 1.41288 (Simulation time: 0 hr 6 min 58 sec) 

ChampSim completed all CPUs

Region of Interest Statistics

CPU 0 cumulative IPC: 1.41288 instructions: 100000003 cycles: 70777266
cpu0_DTLB TOTAL     ACCESS:   18627300  HIT:   17966630  MISS:     660670
cpu0_DTLB LOAD      ACCESS:    9567967  HIT:    8911236  MISS:     656731
cpu0_DTLB RFO       ACCESS:    9059333  HIT:    9055394  MISS:       3939
cpu0_DTLB PREFETCH  ACCESS:          0  HIT:          0  MISS:          0
cpu0_DTLB WRITEBACK ACCESS:          0  HIT:          0  MISS:          0
cpu0_DTLB TRANSLATION ACCESS:          0  HIT:          0  MISS:          0
cpu0_DTLB PREFETCH  REQUESTED:          0  ISSUED:          0  USEFUL:          0  USELESS:          0
cpu0_DTLB AVERAGE MISS LATENCY: 9.26306 cycles
cpu0_ITLB TOTAL     ACCESS:    6783257  HIT:    6783254  MISS:          3
cpu0_ITLB LOAD      ACCESS:    6783257  HIT:    6783254  MISS:          3
cpu0_ITLB RFO       ACCESS:          0  HIT:          0  MISS:          0
cpu0_ITLB PREFETCH  ACCESS:          0  HIT:          0  MISS:          0
cpu0_ITLB WRITEBACK ACCESS:          0  HIT:          0  MISS:          0
cpu0_ITLB TRANSLATION ACCESS:          0  HIT:          0  MISS:          0
cpu0_ITLB PREFETCH  REQUESTED:          0  ISSUED:          0  USEFUL:          0  USELESS:          0
cpu0_ITLB AVERAGE MISS LATENCY: 395.667 cycles
cpu0_L1I TOTAL     ACCESS:      58695  HIT:      58556  MISS:        139
cpu0_L1I LOAD      ACCESS:      58695  HIT:      58556  MISS:        139
cpu0_L1I RFO       ACCESS:          0  HIT:          0  MISS:          0
cpu0_L1I PREFETCH  ACCESS:          0  HIT:          0  MISS:          0
cpu0_L1I WRITEBACK ACCESS:          0  HIT:          0  MISS:          0
cpu0_L1I TRANSLATION ACCESS:          0  HIT:          0  MISS:          0
cpu0_L1I PREFETCH  REQUESTED:          0  ISSUED:          0  USEFUL:          0  USELESS:          0
cpu0_L1I AVERAGE MISS LATENCY: 199.216 cycles
cpu0_STLB TOTAL     ACCESS:     660673  HIT:     659853  MISS:        820
cpu0_STLB LOAD      ACCESS:     656734  HIT:     656461  MISS:        273
cpu0_STLB RFO       ACCESS:       3939  HIT:       3392  MISS:        547
cpu0_STLB PREFETCH  ACCESS:          0  HIT:          0  MISS:          0
cpu0_STLB WRITEBACK ACCESS:          0  HIT:          0  MISS:          0
cpu0_STLB TRANSLATION ACCESS:          0  HIT:          0  MISS:          0
cpu0_STLB PREFETCH  REQUESTED:          0  ISSUED:          0  USEFUL:          0  USELESS:          0
cpu0_STLB AVERAGE MISS LATENCY: 213.302 cycles
cpu0_L1D TOTAL     ACCESS:   20322920  HIT:   19317357  MISS:    1005563
cpu0_L1D LOAD      ACCESS:   10369717  HIT:    9483345  MISS:     886372
cpu0_L1D RFO       ACCESS:    9952385  HIT:    9833513  MISS:     118872
cpu0_L1D PREFETCH  ACCESS:          0  HIT:          0  MISS:          0
cpu0_L1D WRITEBACK ACCESS:          0  HIT:          0  MISS:          0
cpu0_L1D TRANSLATION ACCESS:        818  HIT:        499  MISS:        319
cpu0_L1D PREFETCH  REQUESTED:          0  ISSUED:          0  USEFUL:          0  USELESS:          0
cpu0_L1D AVERAGE MISS LATENCY: 86.3051 cycles
cpu0_L2C TOTAL     ACCESS:    1222697  HIT:     525072  MISS:     697625
cpu0_L2C LOAD      ACCESS:     886510  HIT:     288911  MISS:     597599
cpu0_L2C RFO       ACCESS:     118871  HIT:      18899  MISS:      99972
cpu0_L2C PREFETCH  ACCESS:          0  HIT:          0  MISS:          0
cpu0_L2C WRITEBACK ACCESS:     216997  HIT:     216961  MISS:         36
cpu0_L2C TRANSLATION ACCESS:        319  HIT:        301  MISS:         18
cpu0_L2C PREFETCH  REQUESTED:          0  ISSUED:          0  USEFUL:          0  USELESS:          0
cpu0_L2C AVERAGE MISS LATENCY: 108.578 cycles
LLC TOTAL     ACCESS:     886587  HIT:     588205  MISS:     298382
LLC LOAD      ACCESS:     597598  HIT:     399770  MISS:     197828
LLC RFO       ACCESS:      99972  HIT:      49399  MISS:      50573
LLC PREFETCH  ACCESS:          0  HIT:          0  MISS:          0
LLC WRITEBACK ACCESS:     188999  HIT:     139034  MISS:      49965
LLC TRANSLATION ACCESS:         18  HIT:          2  MISS:         16
LLC PREFETCH  REQUESTED:          0  ISSUED:          0  USEFUL:          0  USELESS:          0
LLC AVERAGE MISS LATENCY: 204.759 cycles
OPTgen accesses: 11231
OPTgen hits: 8451
OPTgen hit rate: 75.2471



DRAM Statistics
 CHANNEL 0
 RQ ROW_BUFFER_HIT:      28547  ROW_BUFFER_MISS:     219664
 DBUS AVG_CONGESTED_CYCLE:    3.95621
 WQ ROW_BUFFER_HIT:      16626  ROW_BUFFER_MISS:     118956  FULL:          0


CPU 0 Branch Prediction Accuracy: 93.3658% MPKI: 11.2167 Average ROB Occupancy at Mispredict: 31.7259
Branch type MPKI
BRANCH_DIRECT_JUMP: 0.0006
BRANCH_INDIRECT: 0.01713
BRANCH_CONDITIONAL: 11.1989
BRANCH_DIRECT_CALL: 5e-05
BRANCH_INDIRECT_CALL: 0
BRANCH_RETURN: 6e-05

