
*** ChampSim Multicore Out-of-Order Simulator ***

Warmup Instructions: 10000000
Simulation Instructions: 100000000
Number of CPUs: 1
Off-chip DRAM Size: 4 GiB Channels: 1 Width: 64-bit Data Rate: 3200 MT/s

VirtualMemory physical capacity: 8588881920 num_ppages: 2096895
VirtualMemory page size: 4096 log2_page_size: 12

CPU 0 runs /datasets/cs240c-wi22-a00-public/data/Assignment2/calculix_2655B.trace.xz
CPU 0 Bimodal branch predictor
Basic BTB sets: 1024 ways: 8 indirect buffer size: 4096 RAS size: 64
Initialize Hawkeye state
Heartbeat CPU 0 instructions: 10000003 cycles: 2503575 heartbeat IPC: 3.99429 cumulative IPC: 3.99429 (Simulation time: 0 hr 0 min 23 sec) 

Warmup complete CPU 0 instructions: 10000003 cycles: 2503575 (Simulation time: 0 hr 0 min 23 sec) 

Heartbeat CPU 0 instructions: 20000002 cycles: 5940645 heartbeat IPC: 2.90945 cumulative IPC: 2.90945 (Simulation time: 0 hr 0 min 51 sec) 
Heartbeat CPU 0 instructions: 30000004 cycles: 9569190 heartbeat IPC: 2.75593 cumulative IPC: 2.83061 (Simulation time: 0 hr 1 min 21 sec) 
Heartbeat CPU 0 instructions: 40000004 cycles: 13203440 heartbeat IPC: 2.7516 cumulative IPC: 2.80377 (Simulation time: 0 hr 1 min 48 sec) 
Heartbeat CPU 0 instructions: 50000001 cycles: 16982946 heartbeat IPC: 2.64585 cumulative IPC: 2.76255 (Simulation time: 0 hr 2 min 15 sec) 
Heartbeat CPU 0 instructions: 60000003 cycles: 20972365 heartbeat IPC: 2.50663 cumulative IPC: 2.70727 (Simulation time: 0 hr 2 min 42 sec) 
Heartbeat CPU 0 instructions: 70000001 cycles: 25104944 heartbeat IPC: 2.4198 cumulative IPC: 2.65471 (Simulation time: 0 hr 3 min 9 sec) 
Heartbeat CPU 0 instructions: 80000001 cycles: 28885030 heartbeat IPC: 2.64544 cumulative IPC: 2.65338 (Simulation time: 0 hr 3 min 34 sec) 
Heartbeat CPU 0 instructions: 90000002 cycles: 32631232 heartbeat IPC: 2.66937 cumulative IPC: 2.65537 (Simulation time: 0 hr 3 min 59 sec) 
Heartbeat CPU 0 instructions: 100000003 cycles: 36227588 heartbeat IPC: 2.78059 cumulative IPC: 2.66872 (Simulation time: 0 hr 4 min 27 sec) 
Heartbeat CPU 0 instructions: 110000004 cycles: 39786933 heartbeat IPC: 2.80951 cumulative IPC: 2.68216 (Simulation time: 0 hr 4 min 53 sec) 
Finished CPU 0 instructions: 100000001 cycles: 37283358 cumulative IPC: 2.68216 (Simulation time: 0 hr 4 min 53 sec) 

ChampSim completed all CPUs

Region of Interest Statistics

CPU 0 cumulative IPC: 2.68216 instructions: 100000001 cycles: 37283358
cpu0_DTLB TOTAL     ACCESS:   12580855  HIT:   12565309  MISS:      15546
cpu0_DTLB LOAD      ACCESS:   11994399  HIT:   11978897  MISS:      15502
cpu0_DTLB RFO       ACCESS:     586456  HIT:     586412  MISS:         44
cpu0_DTLB PREFETCH  ACCESS:          0  HIT:          0  MISS:          0
cpu0_DTLB WRITEBACK ACCESS:          0  HIT:          0  MISS:          0
cpu0_DTLB TRANSLATION ACCESS:          0  HIT:          0  MISS:          0
cpu0_DTLB PREFETCH  REQUESTED:          0  ISSUED:          0  USEFUL:          0  USELESS:          0
cpu0_DTLB AVERAGE MISS LATENCY: 34.102 cycles
cpu0_ITLB TOTAL     ACCESS:    6290213  HIT:    6290213  MISS:          0
cpu0_ITLB LOAD      ACCESS:    6290213  HIT:    6290213  MISS:          0
cpu0_ITLB RFO       ACCESS:          0  HIT:          0  MISS:          0
cpu0_ITLB PREFETCH  ACCESS:          0  HIT:          0  MISS:          0
cpu0_ITLB WRITEBACK ACCESS:          0  HIT:          0  MISS:          0
cpu0_ITLB TRANSLATION ACCESS:          0  HIT:          0  MISS:          0
cpu0_ITLB PREFETCH  REQUESTED:          0  ISSUED:          0  USEFUL:          0  USELESS:          0
cpu0_ITLB AVERAGE MISS LATENCY: -nan cycles
cpu0_L1I TOTAL     ACCESS:       2848  HIT:       2848  MISS:          0
cpu0_L1I LOAD      ACCESS:       2848  HIT:       2848  MISS:          0
cpu0_L1I RFO       ACCESS:          0  HIT:          0  MISS:          0
cpu0_L1I PREFETCH  ACCESS:          0  HIT:          0  MISS:          0
cpu0_L1I WRITEBACK ACCESS:          0  HIT:          0  MISS:          0
cpu0_L1I TRANSLATION ACCESS:          0  HIT:          0  MISS:          0
cpu0_L1I PREFETCH  REQUESTED:          0  ISSUED:          0  USEFUL:          0  USELESS:          0
cpu0_L1I AVERAGE MISS LATENCY: -nan cycles
cpu0_STLB TOTAL     ACCESS:      15546  HIT:      13636  MISS:       1910
cpu0_STLB LOAD      ACCESS:      15502  HIT:      13594  MISS:       1908
cpu0_STLB RFO       ACCESS:         44  HIT:         42  MISS:          2
cpu0_STLB PREFETCH  ACCESS:          0  HIT:          0  MISS:          0
cpu0_STLB WRITEBACK ACCESS:          0  HIT:          0  MISS:          0
cpu0_STLB TRANSLATION ACCESS:          0  HIT:          0  MISS:          0
cpu0_STLB PREFETCH  REQUESTED:          0  ISSUED:          0  USEFUL:          0  USELESS:          0
cpu0_STLB AVERAGE MISS LATENCY: 204.175 cycles
cpu0_L1D TOTAL     ACCESS:   14110299  HIT:   12896806  MISS:    1213493
cpu0_L1D LOAD      ACCESS:   12550937  HIT:   11338755  MISS:    1212182
cpu0_L1D RFO       ACCESS:    1557482  HIT:    1556238  MISS:       1244
cpu0_L1D PREFETCH  ACCESS:          0  HIT:          0  MISS:          0
cpu0_L1D WRITEBACK ACCESS:          0  HIT:          0  MISS:          0
cpu0_L1D TRANSLATION ACCESS:       1880  HIT:       1813  MISS:         67
cpu0_L1D PREFETCH  REQUESTED:          0  ISSUED:          0  USEFUL:          0  USELESS:          0
cpu0_L1D AVERAGE MISS LATENCY: 27.083 cycles
cpu0_L2C TOTAL     ACCESS:    1327973  HIT:    1058353  MISS:     269620
cpu0_L2C LOAD      ACCESS:    1212182  HIT:     942701  MISS:     269481
cpu0_L2C RFO       ACCESS:       1244  HIT:       1214  MISS:         30
cpu0_L2C PREFETCH  ACCESS:          0  HIT:          0  MISS:          0
cpu0_L2C WRITEBACK ACCESS:     114480  HIT:     114388  MISS:         92
cpu0_L2C TRANSLATION ACCESS:         67  HIT:         50  MISS:         17
cpu0_L2C PREFETCH  REQUESTED:          0  ISSUED:          0  USEFUL:          0  USELESS:          0
cpu0_L2C AVERAGE MISS LATENCY: 72.1233 cycles
LLC TOTAL     ACCESS:     335153  HIT:     213941  MISS:     121212
LLC LOAD      ACCESS:     269481  HIT:     148620  MISS:     120861
LLC RFO       ACCESS:         30  HIT:         21  MISS:          9
LLC PREFETCH  ACCESS:          0  HIT:          0  MISS:          0
LLC WRITEBACK ACCESS:      65625  HIT:      65285  MISS:        340
LLC TRANSLATION ACCESS:         17  HIT:         15  MISS:          2
LLC PREFETCH  REQUESTED:          0  ISSUED:          0  USEFUL:          0  USELESS:          0
LLC AVERAGE MISS LATENCY: 113.732 cycles
OPTgen accesses: 4939
OPTgen hits: 2892
OPTgen hit rate: 58.5544



DRAM Statistics
 CHANNEL 0
 RQ ROW_BUFFER_HIT:      86067  ROW_BUFFER_MISS:      34804
 DBUS AVG_CONGESTED_CYCLE:    3.81038
 WQ ROW_BUFFER_HIT:        476  ROW_BUFFER_MISS:       1719  FULL:          0


CPU 0 Branch Prediction Accuracy: 96.352% MPKI: 1.49459 Average ROB Occupancy at Mispredict: 218.899
Branch type MPKI
BRANCH_DIRECT_JUMP: 0
BRANCH_INDIRECT: 0
BRANCH_CONDITIONAL: 1.49459
BRANCH_DIRECT_CALL: 0
BRANCH_INDIRECT_CALL: 0
BRANCH_RETURN: 0

