
*** ChampSim Multicore Out-of-Order Simulator ***

Warmup Instructions: 10000000
Simulation Instructions: 100000000
Number of CPUs: 1
Off-chip DRAM Size: 4 GiB Channels: 1 Width: 64-bit Data Rate: 3200 MT/s

VirtualMemory physical capacity: 8588881920 num_ppages: 2096895
VirtualMemory page size: 4096 log2_page_size: 12

CPU 0 runs /datasets/cs240c-wi22-a00-public/data/Assignment2/lbm_94B.trace.xz
CPU 0 Bimodal branch predictor
Basic BTB sets: 1024 ways: 8 indirect buffer size: 4096 RAS size: 64
Initialize Hawkeye state
Heartbeat CPU 0 instructions: 10000000 cycles: 2544751 heartbeat IPC: 3.92966 cumulative IPC: 3.92966 (Simulation time: 0 hr 0 min 30 sec) 

Warmup complete CPU 0 instructions: 10000004 cycles: 2544752 (Simulation time: 0 hr 0 min 30 sec) 

Heartbeat CPU 0 instructions: 20000000 cycles: 35174429 heartbeat IPC: 0.306469 cumulative IPC: 0.306469 (Simulation time: 0 hr 3 min 1 sec) 
Heartbeat CPU 0 instructions: 30000003 cycles: 66253294 heartbeat IPC: 0.321762 cumulative IPC: 0.31393 (Simulation time: 0 hr 5 min 27 sec) 
Heartbeat CPU 0 instructions: 40000000 cycles: 97581901 heartbeat IPC: 0.319197 cumulative IPC: 0.315666 (Simulation time: 0 hr 7 min 50 sec) 
Heartbeat CPU 0 instructions: 50000001 cycles: 127829030 heartbeat IPC: 0.33061 cumulative IPC: 0.319274 (Simulation time: 0 hr 10 min 10 sec) 
Heartbeat CPU 0 instructions: 60000003 cycles: 157569812 heartbeat IPC: 0.336239 cumulative IPC: 0.322528 (Simulation time: 0 hr 12 min 25 sec) 
Heartbeat CPU 0 instructions: 70000001 cycles: 186724718 heartbeat IPC: 0.342995 cumulative IPC: 0.325768 (Simulation time: 0 hr 14 min 42 sec) 
Heartbeat CPU 0 instructions: 80000003 cycles: 216272424 heartbeat IPC: 0.338436 cumulative IPC: 0.32752 (Simulation time: 0 hr 16 min 59 sec) 
Heartbeat CPU 0 instructions: 90000003 cycles: 246417189 heartbeat IPC: 0.331733 cumulative IPC: 0.32804 (Simulation time: 0 hr 19 min 16 sec) 
Heartbeat CPU 0 instructions: 100000001 cycles: 275737482 heartbeat IPC: 0.341061 cumulative IPC: 0.329438 (Simulation time: 0 hr 21 min 29 sec) 
Heartbeat CPU 0 instructions: 110000003 cycles: 305051289 heartbeat IPC: 0.341136 cumulative IPC: 0.330571 (Simulation time: 0 hr 23 min 41 sec) 
Finished CPU 0 instructions: 100000004 cycles: 302506538 cumulative IPC: 0.330571 (Simulation time: 0 hr 23 min 41 sec) 

ChampSim completed all CPUs

Region of Interest Statistics

CPU 0 cumulative IPC: 0.330571 instructions: 100000004 cycles: 302506538
cpu0_DTLB TOTAL     ACCESS:   13206415  HIT:   13158663  MISS:      47752
cpu0_DTLB LOAD      ACCESS:    6754441  HIT:    6742493  MISS:      11948
cpu0_DTLB RFO       ACCESS:    6451974  HIT:    6416170  MISS:      35804
cpu0_DTLB PREFETCH  ACCESS:          0  HIT:          0  MISS:          0
cpu0_DTLB WRITEBACK ACCESS:          0  HIT:          0  MISS:          0
cpu0_DTLB TRANSLATION ACCESS:          0  HIT:          0  MISS:          0
cpu0_DTLB PREFETCH  REQUESTED:          0  ISSUED:          0  USEFUL:          0  USELESS:          0
cpu0_DTLB AVERAGE MISS LATENCY: 221.028 cycles
cpu0_ITLB TOTAL     ACCESS:     123353  HIT:     123353  MISS:          0
cpu0_ITLB LOAD      ACCESS:     123353  HIT:     123353  MISS:          0
cpu0_ITLB RFO       ACCESS:          0  HIT:          0  MISS:          0
cpu0_ITLB PREFETCH  ACCESS:          0  HIT:          0  MISS:          0
cpu0_ITLB WRITEBACK ACCESS:          0  HIT:          0  MISS:          0
cpu0_ITLB TRANSLATION ACCESS:          0  HIT:          0  MISS:          0
cpu0_ITLB PREFETCH  REQUESTED:          0  ISSUED:          0  USEFUL:          0  USELESS:          0
cpu0_ITLB AVERAGE MISS LATENCY: -nan cycles
cpu0_STLB TOTAL     ACCESS:      47752  HIT:          0  MISS:      47752
cpu0_STLB LOAD      ACCESS:      11948  HIT:          0  MISS:      11948
cpu0_STLB RFO       ACCESS:      35804  HIT:          0  MISS:      35804
cpu0_STLB PREFETCH  ACCESS:          0  HIT:          0  MISS:          0
cpu0_STLB WRITEBACK ACCESS:          0  HIT:          0  MISS:          0
cpu0_STLB TRANSLATION ACCESS:          0  HIT:          0  MISS:          0
cpu0_STLB PREFETCH  REQUESTED:          0  ISSUED:          0  USEFUL:          0  USELESS:          0
cpu0_STLB AVERAGE MISS LATENCY: 212.028 cycles
cpu0_L1D TOTAL     ACCESS:   14656174  HIT:    9617638  MISS:    5038536
cpu0_L1D LOAD      ACCESS:    4304752  HIT:    3541278  MISS:     763474
cpu0_L1D RFO       ACCESS:   10303670  HIT:    6028655  MISS:    4275015
cpu0_L1D PREFETCH  ACCESS:          0  HIT:          0  MISS:          0
cpu0_L1D WRITEBACK ACCESS:          0  HIT:          0  MISS:          0
cpu0_L1D TRANSLATION ACCESS:      47752  HIT:      47705  MISS:         47
cpu0_L1D PREFETCH  REQUESTED:          0  ISSUED:          0  USEFUL:          0  USELESS:          0
cpu0_L1D AVERAGE MISS LATENCY: 374.594 cycles
cpu0_L2C TOTAL     ACCESS:    9313550  HIT:    6258421  MISS:    3055129
cpu0_L2C LOAD      ACCESS:     763474  HIT:          1  MISS:     763473
cpu0_L2C RFO       ACCESS:    4275015  HIT:    1983507  MISS:    2291508
cpu0_L2C PREFETCH  ACCESS:          0  HIT:          0  MISS:          0
cpu0_L2C WRITEBACK ACCESS:    4275014  HIT:    4274913  MISS:        101
cpu0_L2C TRANSLATION ACCESS:         47  HIT:          0  MISS:         47
cpu0_L2C PREFETCH  REQUESTED:          0  ISSUED:          0  USEFUL:          0  USELESS:          0
cpu0_L2C AVERAGE MISS LATENCY: 598.14 cycles
LLC TOTAL     ACCESS:    5346814  HIT:    1610315  MISS:    3736499
LLC LOAD      ACCESS:     763473  HIT:         63  MISS:     763410
LLC RFO       ACCESS:    2291508  HIT:     608905  MISS:    1682603
LLC PREFETCH  ACCESS:          0  HIT:          0  MISS:          0
LLC WRITEBACK ACCESS:    2291786  HIT:    1001329  MISS:    1290457
LLC TRANSLATION ACCESS:         47  HIT:         18  MISS:         29
LLC PREFETCH  REQUESTED:          0  ISSUED:          0  USEFUL:          0  USELESS:          0
LLC AVERAGE MISS LATENCY: 471.895 cycles
OPTgen accesses: 53123
OPTgen hits: 14319
OPTgen hit rate: 26.9544



DRAM Statistics
 CHANNEL 0
 RQ ROW_BUFFER_HIT:      40911  ROW_BUFFER_MISS:    2404933
 DBUS AVG_CONGESTED_CYCLE:    3.99526
 WQ ROW_BUFFER_HIT:      24858  ROW_BUFFER_MISS:    1929125  FULL:         73


CPU 0 Branch Prediction Accuracy: 99.132% MPKI: 0.10209 Average ROB Occupancy at Mispredict: 173.609
Branch type MPKI
BRANCH_DIRECT_JUMP: 0
BRANCH_INDIRECT: 0
BRANCH_CONDITIONAL: 0.10209
BRANCH_DIRECT_CALL: 0
BRANCH_INDIRECT_CALL: 0
BRANCH_RETURN: 0

