
*** ChampSim Multicore Out-of-Order Simulator ***

Warmup Instructions: 10000000
Simulation Instructions: 100000000
Number of CPUs: 1
Off-chip DRAM Size: 4 GiB Channels: 1 Width: 64-bit Data Rate: 3200 MT/s

VirtualMemory physical capacity: 8588881920 num_ppages: 2096895
VirtualMemory page size: 4096 log2_page_size: 12

CPU 0 runs /datasets/cs240c-wi22-a00-public/data/Assignment2/mcf_158B.trace.xz
CPU 0 Bimodal branch predictor
Basic BTB sets: 1024 ways: 8 indirect buffer size: 4096 RAS size: 64
Initialize Hawkeye state
Heartbeat CPU 0 instructions: 10000002 cycles: 3864087 heartbeat IPC: 2.58793 cumulative IPC: 2.58793 (Simulation time: 0 hr 0 min 57 sec) 

Warmup complete CPU 0 instructions: 10000002 cycles: 3864087 (Simulation time: 0 hr 0 min 57 sec) 

Heartbeat CPU 0 instructions: 20000000 cycles: 140639762 heartbeat IPC: 0.0731124 cumulative IPC: 0.0731124 (Simulation time: 0 hr 4 min 39 sec) 
Heartbeat CPU 0 instructions: 30000000 cycles: 270609426 heartbeat IPC: 0.076941 cumulative IPC: 0.0749779 (Simulation time: 0 hr 8 min 16 sec) 
Heartbeat CPU 0 instructions: 40000001 cycles: 398951855 heartbeat IPC: 0.0779166 cumulative IPC: 0.0759325 (Simulation time: 0 hr 11 min 50 sec) 
Heartbeat CPU 0 instructions: 50000000 cycles: 517583879 heartbeat IPC: 0.0842943 cumulative IPC: 0.0778635 (Simulation time: 0 hr 15 min 10 sec) 
Heartbeat CPU 0 instructions: 60000000 cycles: 632171868 heartbeat IPC: 0.0872692 cumulative IPC: 0.0795788 (Simulation time: 0 hr 18 min 23 sec) 
Heartbeat CPU 0 instructions: 70000002 cycles: 744497658 heartbeat IPC: 0.0890268 cumulative IPC: 0.0810117 (Simulation time: 0 hr 21 min 33 sec) 
Heartbeat CPU 0 instructions: 80000000 cycles: 858610614 heartbeat IPC: 0.0876324 cumulative IPC: 0.0818956 (Simulation time: 0 hr 24 min 48 sec) 
Heartbeat CPU 0 instructions: 90000003 cycles: 976127973 heartbeat IPC: 0.0850938 cumulative IPC: 0.0822822 (Simulation time: 0 hr 28 min 10 sec) 
Heartbeat CPU 0 instructions: 100000003 cycles: 1095677623 heartbeat IPC: 0.0836473 cumulative IPC: 0.0824317 (Simulation time: 0 hr 31 min 36 sec) 
Heartbeat CPU 0 instructions: 110000001 cycles: 1216189704 heartbeat IPC: 0.0829792 cumulative IPC: 0.0824861 (Simulation time: 0 hr 35 min 3 sec) 
Finished CPU 0 instructions: 100000002 cycles: 1212325618 cumulative IPC: 0.0824861 (Simulation time: 0 hr 35 min 3 sec) 

ChampSim completed all CPUs

Region of Interest Statistics

CPU 0 cumulative IPC: 0.0824861 instructions: 100000002 cycles: 1212325618
cpu0_DTLB TOTAL     ACCESS:   23554924  HIT:   12733008  MISS:   10821916
cpu0_DTLB LOAD      ACCESS:   20435955  HIT:    9981209  MISS:   10454746
cpu0_DTLB RFO       ACCESS:    3118969  HIT:    2751799  MISS:     367170
cpu0_DTLB PREFETCH  ACCESS:          0  HIT:          0  MISS:          0
cpu0_DTLB WRITEBACK ACCESS:          0  HIT:          0  MISS:          0
cpu0_DTLB TRANSLATION ACCESS:          0  HIT:          0  MISS:          0
cpu0_DTLB PREFETCH  REQUESTED:          0  ISSUED:          0  USEFUL:          0  USELESS:          0
cpu0_DTLB AVERAGE MISS LATENCY: 11.9134 cycles
cpu0_ITLB TOTAL     ACCESS:   12955940  HIT:   12955940  MISS:          0
cpu0_ITLB LOAD      ACCESS:   12955940  HIT:   12955940  MISS:          0
cpu0_ITLB RFO       ACCESS:          0  HIT:          0  MISS:          0
cpu0_ITLB PREFETCH  ACCESS:          0  HIT:          0  MISS:          0
cpu0_ITLB WRITEBACK ACCESS:          0  HIT:          0  MISS:          0
cpu0_ITLB TRANSLATION ACCESS:          0  HIT:          0  MISS:          0
cpu0_ITLB PREFETCH  REQUESTED:          0  ISSUED:          0  USEFUL:          0  USELESS:          0
cpu0_ITLB AVERAGE MISS LATENCY: -nan cycles
cpu0_L1I TOTAL     ACCESS:         19  HIT:         14  MISS:          5
cpu0_L1I LOAD      ACCESS:         19  HIT:         14  MISS:          5
cpu0_L1I RFO       ACCESS:          0  HIT:          0  MISS:          0
cpu0_L1I PREFETCH  ACCESS:          0  HIT:          0  MISS:          0
cpu0_L1I WRITEBACK ACCESS:          0  HIT:          0  MISS:          0
cpu0_L1I TRANSLATION ACCESS:          0  HIT:          0  MISS:          0
cpu0_L1I PREFETCH  REQUESTED:          0  ISSUED:          0  USEFUL:          0  USELESS:          0
cpu0_L1I AVERAGE MISS LATENCY: 194.4 cycles
cpu0_STLB TOTAL     ACCESS:   10821916  HIT:    9710649  MISS:    1111267
cpu0_STLB LOAD      ACCESS:   10454746  HIT:    9350245  MISS:    1104501
cpu0_STLB RFO       ACCESS:     367170  HIT:     360404  MISS:       6766
cpu0_STLB PREFETCH  ACCESS:          0  HIT:          0  MISS:          0
cpu0_STLB WRITEBACK ACCESS:          0  HIT:          0  MISS:          0
cpu0_STLB TRANSLATION ACCESS:          0  HIT:          0  MISS:          0
cpu0_STLB PREFETCH  REQUESTED:          0  ISSUED:          0  USEFUL:          0  USELESS:          0
cpu0_STLB AVERAGE MISS LATENCY: 28.3335 cycles
cpu0_L1D TOTAL     ACCESS:   27619878  HIT:   14076003  MISS:   13543875
cpu0_L1D LOAD      ACCESS:   22273123  HIT:    9103252  MISS:   13169871
cpu0_L1D RFO       ACCESS:    4239373  HIT:    4034360  MISS:     205013
cpu0_L1D PREFETCH  ACCESS:          0  HIT:          0  MISS:          0
cpu0_L1D WRITEBACK ACCESS:          0  HIT:          0  MISS:          0
cpu0_L1D TRANSLATION ACCESS:    1107382  HIT:     938391  MISS:     168991
cpu0_L1D PREFETCH  REQUESTED:          0  ISSUED:          0  USEFUL:          0  USELESS:          0
cpu0_L1D AVERAGE MISS LATENCY: 161.037 cycles
cpu0_L2C TOTAL     ACCESS:   15651782  HIT:    6138547  MISS:    9513235
cpu0_L2C LOAD      ACCESS:   13169503  HIT:    3841493  MISS:    9328010
cpu0_L2C RFO       ACCESS:     205007  HIT:      71750  MISS:     133257
cpu0_L2C PREFETCH  ACCESS:          0  HIT:          0  MISS:          0
cpu0_L2C WRITEBACK ACCESS:    2108281  HIT:    2107929  MISS:        352
cpu0_L2C TRANSLATION ACCESS:     168991  HIT:     117375  MISS:      51616
cpu0_L2C PREFETCH  REQUESTED:          0  ISSUED:          0  USEFUL:          0  USELESS:          0
cpu0_L2C AVERAGE MISS LATENCY: 213.532 cycles
LLC TOTAL     ACCESS:   11018447  HIT:    4346741  MISS:    6671706
LLC LOAD      ACCESS:    9328008  HIT:    3467939  MISS:    5860069
LLC RFO       ACCESS:     133257  HIT:      68772  MISS:      64485
LLC PREFETCH  ACCESS:          0  HIT:          0  MISS:          0
LLC WRITEBACK ACCESS:    1505566  HIT:     800482  MISS:     705084
LLC TRANSLATION ACCESS:      51616  HIT:       9548  MISS:      42068
LLC PREFETCH  REQUESTED:          0  ISSUED:          0  USEFUL:          0  USELESS:          0
LLC AVERAGE MISS LATENCY: 274.534 cycles
OPTgen accesses: 172558
OPTgen hits: 66060
OPTgen hit rate: 38.2828



DRAM Statistics
 CHANNEL 0
 RQ ROW_BUFFER_HIT:      18717  ROW_BUFFER_MISS:    5947162
 DBUS AVG_CONGESTED_CYCLE:     3.9628
 WQ ROW_BUFFER_HIT:      44095  ROW_BUFFER_MISS:     931084  FULL:          0


CPU 0 Branch Prediction Accuracy: 85.5988% MPKI: 40.2398 Average ROB Occupancy at Mispredict: 17.1588
Branch type MPKI
BRANCH_DIRECT_JUMP: 4e-05
BRANCH_INDIRECT: 0
BRANCH_CONDITIONAL: 40.2397
BRANCH_DIRECT_CALL: 0
BRANCH_INDIRECT_CALL: 0
BRANCH_RETURN: 0

