
*** ChampSim Multicore Out-of-Order Simulator ***

Warmup Instructions: 10000000
Simulation Instructions: 100000000
Number of CPUs: 1
Off-chip DRAM Size: 4 GiB Channels: 1 Width: 64-bit Data Rate: 3200 MT/s

VirtualMemory physical capacity: 8588881920 num_ppages: 2096895
VirtualMemory page size: 4096 log2_page_size: 12

CPU 0 runs /datasets/cs240c-wi22-a00-public/data/Assignment2/soplex_205B.trace.xz
CPU 0 Bimodal branch predictor
Basic BTB sets: 1024 ways: 8 indirect buffer size: 4096 RAS size: 64
Initialize Hawkeye state
Heartbeat CPU 0 instructions: 10000002 cycles: 2865171 heartbeat IPC: 3.49019 cumulative IPC: 3.49019 (Simulation time: 0 hr 0 min 35 sec) 

Warmup complete CPU 0 instructions: 10000002 cycles: 2865171 (Simulation time: 0 hr 0 min 35 sec) 

Heartbeat CPU 0 instructions: 20000004 cycles: 46751698 heartbeat IPC: 0.22786 cumulative IPC: 0.22786 (Simulation time: 0 hr 3 min 37 sec) 
Heartbeat CPU 0 instructions: 30000004 cycles: 82063662 heartbeat IPC: 0.28319 cumulative IPC: 0.25253 (Simulation time: 0 hr 5 min 10 sec) 
Heartbeat CPU 0 instructions: 40000004 cycles: 109384857 heartbeat IPC: 0.366016 cumulative IPC: 0.281638 (Simulation time: 0 hr 6 min 45 sec) 
Heartbeat CPU 0 instructions: 50000001 cycles: 140702317 heartbeat IPC: 0.319311 cumulative IPC: 0.290198 (Simulation time: 0 hr 8 min 25 sec) 
Heartbeat CPU 0 instructions: 60000000 cycles: 167448376 heartbeat IPC: 0.373887 cumulative IPC: 0.303798 (Simulation time: 0 hr 9 min 44 sec) 
Heartbeat CPU 0 instructions: 70000000 cycles: 197968870 heartbeat IPC: 0.327649 cumulative IPC: 0.307529 (Simulation time: 0 hr 11 min 18 sec) 
Heartbeat CPU 0 instructions: 80000003 cycles: 225748355 heartbeat IPC: 0.359978 cumulative IPC: 0.314066 (Simulation time: 0 hr 12 min 38 sec) 
Heartbeat CPU 0 instructions: 90000000 cycles: 258311913 heartbeat IPC: 0.307092 cumulative IPC: 0.313177 (Simulation time: 0 hr 14 min 22 sec) 
Heartbeat CPU 0 instructions: 100000002 cycles: 285473423 heartbeat IPC: 0.368168 cumulative IPC: 0.318462 (Simulation time: 0 hr 15 min 37 sec) 
Heartbeat CPU 0 instructions: 110000000 cycles: 339563213 heartbeat IPC: 0.184878 cumulative IPC: 0.297002 (Simulation time: 0 hr 17 min 58 sec) 
Finished CPU 0 instructions: 100000003 cycles: 336698043 cumulative IPC: 0.297002 (Simulation time: 0 hr 17 min 58 sec) 

ChampSim completed all CPUs

Region of Interest Statistics

CPU 0 cumulative IPC: 0.297002 instructions: 100000003 cycles: 336698043
cpu0_DTLB TOTAL     ACCESS:   22257256  HIT:   21294861  MISS:     962395
cpu0_DTLB LOAD      ACCESS:   16518669  HIT:   15779172  MISS:     739497
cpu0_DTLB RFO       ACCESS:    5738587  HIT:    5515689  MISS:     222898
cpu0_DTLB PREFETCH  ACCESS:          0  HIT:          0  MISS:          0
cpu0_DTLB WRITEBACK ACCESS:          0  HIT:          0  MISS:          0
cpu0_DTLB TRANSLATION ACCESS:          0  HIT:          0  MISS:          0
cpu0_DTLB PREFETCH  REQUESTED:          0  ISSUED:          0  USEFUL:          0  USELESS:          0
cpu0_DTLB AVERAGE MISS LATENCY: 16.4485 cycles
cpu0_ITLB TOTAL     ACCESS:    8006098  HIT:    8006081  MISS:         17
cpu0_ITLB LOAD      ACCESS:    8006098  HIT:    8006081  MISS:         17
cpu0_ITLB RFO       ACCESS:          0  HIT:          0  MISS:          0
cpu0_ITLB PREFETCH  ACCESS:          0  HIT:          0  MISS:          0
cpu0_ITLB WRITEBACK ACCESS:          0  HIT:          0  MISS:          0
cpu0_ITLB TRANSLATION ACCESS:          0  HIT:          0  MISS:          0
cpu0_ITLB PREFETCH  REQUESTED:          0  ISSUED:          0  USEFUL:          0  USELESS:          0
cpu0_ITLB AVERAGE MISS LATENCY: 378.706 cycles
cpu0_L1I TOTAL     ACCESS:     822168  HIT:     821395  MISS:        773
cpu0_L1I LOAD      ACCESS:     822168  HIT:     821395  MISS:        773
cpu0_L1I RFO       ACCESS:          0  HIT:          0  MISS:          0
cpu0_L1I PREFETCH  ACCESS:          0  HIT:          0  MISS:          0
cpu0_L1I WRITEBACK ACCESS:          0  HIT:          0  MISS:          0
cpu0_L1I TRANSLATION ACCESS:          0  HIT:          0  MISS:          0
cpu0_L1I PREFETCH  REQUESTED:          0  ISSUED:          0  USEFUL:          0  USELESS:          0
cpu0_L1I AVERAGE MISS LATENCY: 327.855 cycles
cpu0_STLB TOTAL     ACCESS:     962412  HIT:     806847  MISS:     155565
cpu0_STLB LOAD      ACCESS:     739514  HIT:     594772  MISS:     144742
cpu0_STLB RFO       ACCESS:     222898  HIT:     212075  MISS:      10823
cpu0_STLB PREFETCH  ACCESS:          0  HIT:          0  MISS:          0
cpu0_STLB WRITEBACK ACCESS:          0  HIT:          0  MISS:          0
cpu0_STLB TRANSLATION ACCESS:          0  HIT:          0  MISS:          0
cpu0_STLB PREFETCH  REQUESTED:          0  ISSUED:          0  USEFUL:          0  USELESS:          0
cpu0_STLB AVERAGE MISS LATENCY: 45.1895 cycles
cpu0_L1D TOTAL     ACCESS:   19242262  HIT:   13451645  MISS:    5790617
cpu0_L1D LOAD      ACCESS:   12672103  HIT:    7837460  MISS:    4834643
cpu0_L1D RFO       ACCESS:    6418536  HIT:    5468200  MISS:     950336
cpu0_L1D PREFETCH  ACCESS:          0  HIT:          0  MISS:          0
cpu0_L1D WRITEBACK ACCESS:          0  HIT:          0  MISS:          0
cpu0_L1D TRANSLATION ACCESS:     151623  HIT:     145985  MISS:       5638
cpu0_L1D PREFETCH  REQUESTED:          0  ISSUED:          0  USEFUL:          0  USELESS:          0
cpu0_L1D AVERAGE MISS LATENCY: 225.365 cycles
cpu0_L2C TOTAL     ACCESS:    8361002  HIT:    3855295  MISS:    4505707
cpu0_L2C LOAD      ACCESS:    4835007  HIT:    1131431  MISS:    3703576
cpu0_L2C RFO       ACCESS:     950268  HIT:     149026  MISS:     801242
cpu0_L2C PREFETCH  ACCESS:          0  HIT:          0  MISS:          0
cpu0_L2C WRITEBACK ACCESS:    2570089  HIT:    2570017  MISS:         72
cpu0_L2C TRANSLATION ACCESS:       5638  HIT:       4821  MISS:        817
cpu0_L2C PREFETCH  REQUESTED:          0  ISSUED:          0  USEFUL:          0  USELESS:          0
cpu0_L2C AVERAGE MISS LATENCY: 275.339 cycles
LLC TOTAL     ACCESS:    6405747  HIT:    3220143  MISS:    3185604
LLC LOAD      ACCESS:    3703555  HIT:    1443862  MISS:    2259693
LLC RFO       ACCESS:     801238  HIT:     294155  MISS:     507083
LLC PREFETCH  ACCESS:          0  HIT:          0  MISS:          0
LLC WRITEBACK ACCESS:    1900137  HIT:    1481722  MISS:     418415
LLC TRANSLATION ACCESS:        817  HIT:        404  MISS:        413
LLC PREFETCH  REQUESTED:          0  ISSUED:          0  USEFUL:          0  USELESS:          0
LLC AVERAGE MISS LATENCY: 359.085 cycles
OPTgen accesses: 77400
OPTgen hits: 37362
OPTgen hit rate: 48.2713



DRAM Statistics
 CHANNEL 0
 RQ ROW_BUFFER_HIT:     285751  ROW_BUFFER_MISS:    2479055
 DBUS AVG_CONGESTED_CYCLE:    3.95659
 WQ ROW_BUFFER_HIT:      45329  ROW_BUFFER_MISS:     994643  FULL:     625833


CPU 0 Branch Prediction Accuracy: 93.3985% MPKI: 13.5305 Average ROB Occupancy at Mispredict: 47.7071
Branch type MPKI
BRANCH_DIRECT_JUMP: 0.00081
BRANCH_INDIRECT: 0.00022
BRANCH_CONDITIONAL: 13.5274
BRANCH_DIRECT_CALL: 0.00058
BRANCH_INDIRECT_CALL: 0.00056
BRANCH_RETURN: 0.00094

