
*** ChampSim Multicore Out-of-Order Simulator ***

Warmup Instructions: 10000000
Simulation Instructions: 100000000
Number of CPUs: 1
Off-chip DRAM Size: 4 GiB Channels: 1 Width: 64-bit Data Rate: 3200 MT/s

VirtualMemory physical capacity: 8588881920 num_ppages: 2096895
VirtualMemory page size: 4096 log2_page_size: 12

CPU 0 runs /datasets/cs240c-wi22-a00-public/data/Assignment2/leslie3d_94B.trace.xz
CPU 0 Bimodal branch predictor
Basic BTB sets: 1024 ways: 8 indirect buffer size: 4096 RAS size: 64
Initialize Hawkeye state
Heartbeat CPU 0 instructions: 10000002 cycles: 4308733 heartbeat IPC: 2.32087 cumulative IPC: 2.32087 (Simulation time: 0 hr 1 min 11 sec) 

Warmup complete CPU 0 instructions: 10000002 cycles: 4308733 (Simulation time: 0 hr 1 min 11 sec) 

Heartbeat CPU 0 instructions: 20000001 cycles: 25212280 heartbeat IPC: 0.478388 cumulative IPC: 0.478388 (Simulation time: 0 hr 3 min 31 sec) 
Heartbeat CPU 0 instructions: 30000001 cycles: 75870123 heartbeat IPC: 0.197403 cumulative IPC: 0.27948 (Simulation time: 0 hr 8 min 39 sec) 
Heartbeat CPU 0 instructions: 40000001 cycles: 86635658 heartbeat IPC: 0.92889 cumulative IPC: 0.364401 (Simulation time: 0 hr 10 min 26 sec) 
Heartbeat CPU 0 instructions: 50000002 cycles: 96943361 heartbeat IPC: 0.970148 cumulative IPC: 0.431804 (Simulation time: 0 hr 12 min 8 sec) 
Heartbeat CPU 0 instructions: 60000003 cycles: 107159915 heartbeat IPC: 0.978804 cumulative IPC: 0.486139 (Simulation time: 0 hr 13 min 54 sec) 
Heartbeat CPU 0 instructions: 70000001 cycles: 117398577 heartbeat IPC: 0.97669 cumulative IPC: 0.530552 (Simulation time: 0 hr 15 min 42 sec) 
Heartbeat CPU 0 instructions: 80000001 cycles: 130981032 heartbeat IPC: 0.736244 cumulative IPC: 0.552607 (Simulation time: 0 hr 17 min 47 sec) 
Heartbeat CPU 0 instructions: 90000004 cycles: 164696751 heartbeat IPC: 0.296598 cumulative IPC: 0.49879 (Simulation time: 0 hr 21 min 15 sec) 
Heartbeat CPU 0 instructions: 100000001 cycles: 221198674 heartbeat IPC: 0.176985 cumulative IPC: 0.414957 (Simulation time: 0 hr 26 min 53 sec) 
Heartbeat CPU 0 instructions: 110000004 cycles: 237570023 heartbeat IPC: 0.610823 cumulative IPC: 0.428704 (Simulation time: 0 hr 28 min 28 sec) 
Finished CPU 0 instructions: 100000002 cycles: 233261290 cumulative IPC: 0.428704 (Simulation time: 0 hr 28 min 28 sec) 

ChampSim completed all CPUs

Region of Interest Statistics

CPU 0 cumulative IPC: 0.428704 instructions: 100000002 cycles: 233261290
cpu0_DTLB TOTAL     ACCESS:   26710085  HIT:   26597445  MISS:     112640
cpu0_DTLB LOAD      ACCESS:   21450477  HIT:   21354748  MISS:      95729
cpu0_DTLB RFO       ACCESS:    5259608  HIT:    5242697  MISS:      16911
cpu0_DTLB PREFETCH  ACCESS:          0  HIT:          0  MISS:          0
cpu0_DTLB WRITEBACK ACCESS:          0  HIT:          0  MISS:          0
cpu0_DTLB TRANSLATION ACCESS:          0  HIT:          0  MISS:          0
cpu0_DTLB PREFETCH  REQUESTED:          0  ISSUED:          0  USEFUL:          0  USELESS:          0
cpu0_DTLB AVERAGE MISS LATENCY: 102.713 cycles
cpu0_ITLB TOTAL     ACCESS:    3121867  HIT:    3121810  MISS:         57
cpu0_ITLB LOAD      ACCESS:    3121867  HIT:    3121810  MISS:         57
cpu0_ITLB RFO       ACCESS:          0  HIT:          0  MISS:          0
cpu0_ITLB PREFETCH  ACCESS:          0  HIT:          0  MISS:          0
cpu0_ITLB WRITEBACK ACCESS:          0  HIT:          0  MISS:          0
cpu0_ITLB TRANSLATION ACCESS:          0  HIT:          0  MISS:          0
cpu0_ITLB PREFETCH  REQUESTED:          0  ISSUED:          0  USEFUL:          0  USELESS:          0
cpu0_ITLB AVERAGE MISS LATENCY: 241.474 cycles
cpu0_L1I TOTAL     ACCESS:    1638062  HIT:    1636990  MISS:       1072
cpu0_L1I LOAD      ACCESS:    1638062  HIT:    1636990  MISS:       1072
cpu0_L1I RFO       ACCESS:          0  HIT:          0  MISS:          0
cpu0_L1I PREFETCH  ACCESS:          0  HIT:          0  MISS:          0
cpu0_L1I WRITEBACK ACCESS:          0  HIT:          0  MISS:          0
cpu0_L1I TRANSLATION ACCESS:          0  HIT:          0  MISS:          0
cpu0_L1I PREFETCH  REQUESTED:          0  ISSUED:          0  USEFUL:          0  USELESS:          0
cpu0_L1I AVERAGE MISS LATENCY: 338.58 cycles
cpu0_STLB TOTAL     ACCESS:     112697  HIT:      63001  MISS:      49696
cpu0_STLB LOAD      ACCESS:      95786  HIT:      56422  MISS:      39364
cpu0_STLB RFO       ACCESS:      16911  HIT:       6579  MISS:      10332
cpu0_STLB PREFETCH  ACCESS:          0  HIT:          0  MISS:          0
cpu0_STLB WRITEBACK ACCESS:          0  HIT:          0  MISS:          0
cpu0_STLB TRANSLATION ACCESS:          0  HIT:          0  MISS:          0
cpu0_STLB PREFETCH  REQUESTED:          0  ISSUED:          0  USEFUL:          0  USELESS:          0
cpu0_STLB AVERAGE MISS LATENCY: 212.596 cycles
cpu0_L1D TOTAL     ACCESS:   22197866  HIT:   18161882  MISS:    4035984
cpu0_L1D LOAD      ACCESS:   13819694  HIT:   10730859  MISS:    3088835
cpu0_L1D RFO       ACCESS:    8335768  HIT:    7393530  MISS:     942238
cpu0_L1D PREFETCH  ACCESS:          0  HIT:          0  MISS:          0
cpu0_L1D WRITEBACK ACCESS:          0  HIT:          0  MISS:          0
cpu0_L1D TRANSLATION ACCESS:      42404  HIT:      37493  MISS:       4911
cpu0_L1D PREFETCH  REQUESTED:          0  ISSUED:          0  USEFUL:          0  USELESS:          0
cpu0_L1D AVERAGE MISS LATENCY: 616.443 cycles
cpu0_L2C TOTAL     ACCESS:    5249067  HIT:    2252143  MISS:    2996924
cpu0_L2C LOAD      ACCESS:    3089903  HIT:     791568  MISS:    2298335
cpu0_L2C RFO       ACCESS:     942143  HIT:     246124  MISS:     696019
cpu0_L2C PREFETCH  ACCESS:          0  HIT:          0  MISS:          0
cpu0_L2C WRITEBACK ACCESS:    1212110  HIT:    1209821  MISS:       2289
cpu0_L2C TRANSLATION ACCESS:       4911  HIT:       4630  MISS:        281
cpu0_L2C PREFETCH  REQUESTED:          0  ISSUED:          0  USEFUL:          0  USELESS:          0
cpu0_L2C AVERAGE MISS LATENCY: 815.398 cycles
LLC TOTAL     ACCESS:    3927713  HIT:     653568  MISS:    3274145
LLC LOAD      ACCESS:    2298329  HIT:     388674  MISS:    1909655
LLC RFO       ACCESS:     696012  HIT:      35978  MISS:     660034
LLC PREFETCH  ACCESS:          0  HIT:          0  MISS:          0
LLC WRITEBACK ACCESS:     933091  HIT:     228834  MISS:     704257
LLC TRANSLATION ACCESS:        281  HIT:         82  MISS:        199
LLC PREFETCH  REQUESTED:          0  ISSUED:          0  USEFUL:          0  USELESS:          0
LLC AVERAGE MISS LATENCY: 727.125 cycles
OPTgen accesses: 50367
OPTgen hits: 10192
OPTgen hit rate: 20.2355



DRAM Statistics
 CHANNEL 0
 RQ ROW_BUFFER_HIT:     169821  ROW_BUFFER_MISS:    2399875
 DBUS AVG_CONGESTED_CYCLE:    3.97239
 WQ ROW_BUFFER_HIT:      48689  ROW_BUFFER_MISS:     819049  FULL:      10831


CPU 0 Branch Prediction Accuracy: 96.9231% MPKI: 1.73686 Average ROB Occupancy at Mispredict: 309.378
Branch type MPKI
BRANCH_DIRECT_JUMP: 0.00082
BRANCH_INDIRECT: 0.00014
BRANCH_CONDITIONAL: 1.73229
BRANCH_DIRECT_CALL: 0.00185
BRANCH_INDIRECT_CALL: 3e-05
BRANCH_RETURN: 0.00173

