
*** ChampSim Multicore Out-of-Order Simulator ***

Warmup Instructions: 10000000
Simulation Instructions: 100000000
Number of CPUs: 1
Off-chip DRAM Size: 4 GiB Channels: 1 Width: 64-bit Data Rate: 3200 MT/s

VirtualMemory physical capacity: 8588881920 num_ppages: 2096895
VirtualMemory page size: 4096 log2_page_size: 12

CPU 0 runs /datasets/cs240c-wi22-a00-public/data/Assignment2/zeusmp_300B.trace.xz
CPU 0 Bimodal branch predictor
Basic BTB sets: 1024 ways: 8 indirect buffer size: 4096 RAS size: 64
Initialize Hawkeye state
Heartbeat CPU 0 instructions: 10000000 cycles: 2814860 heartbeat IPC: 3.55257 cumulative IPC: 3.55257 (Simulation time: 0 hr 0 min 31 sec) 

Warmup complete CPU 0 instructions: 10000002 cycles: 2814863 (Simulation time: 0 hr 0 min 31 sec) 

Heartbeat CPU 0 instructions: 20000004 cycles: 8427953 heartbeat IPC: 1.78155 cumulative IPC: 1.78155 (Simulation time: 0 hr 1 min 18 sec) 
Heartbeat CPU 0 instructions: 30000004 cycles: 14056059 heartbeat IPC: 1.7768 cumulative IPC: 1.77917 (Simulation time: 0 hr 2 min 5 sec) 
Heartbeat CPU 0 instructions: 40000003 cycles: 19671324 heartbeat IPC: 1.78086 cumulative IPC: 1.77973 (Simulation time: 0 hr 2 min 50 sec) 
Heartbeat CPU 0 instructions: 50000004 cycles: 25330641 heartbeat IPC: 1.767 cumulative IPC: 1.77653 (Simulation time: 0 hr 3 min 36 sec) 
Heartbeat CPU 0 instructions: 60000001 cycles: 30979970 heartbeat IPC: 1.77012 cumulative IPC: 1.77525 (Simulation time: 0 hr 4 min 20 sec) 
Heartbeat CPU 0 instructions: 70000000 cycles: 36580571 heartbeat IPC: 1.78552 cumulative IPC: 1.77695 (Simulation time: 0 hr 5 min 4 sec) 
Heartbeat CPU 0 instructions: 80000000 cycles: 42190043 heartbeat IPC: 1.7827 cumulative IPC: 1.77777 (Simulation time: 0 hr 5 min 50 sec) 
Heartbeat CPU 0 instructions: 90000003 cycles: 47947894 heartbeat IPC: 1.73676 cumulative IPC: 1.77254 (Simulation time: 0 hr 6 min 33 sec) 
Heartbeat CPU 0 instructions: 100000000 cycles: 53555713 heartbeat IPC: 1.78322 cumulative IPC: 1.77372 (Simulation time: 0 hr 7 min 17 sec) 
Heartbeat CPU 0 instructions: 110000004 cycles: 59118077 heartbeat IPC: 1.7978 cumulative IPC: 1.7761 (Simulation time: 0 hr 8 min 0 sec) 
Finished CPU 0 instructions: 100000002 cycles: 56303214 cumulative IPC: 1.7761 (Simulation time: 0 hr 8 min 0 sec) 

ChampSim completed all CPUs

Region of Interest Statistics

CPU 0 cumulative IPC: 1.7761 instructions: 100000002 cycles: 56303214
cpu0_DTLB TOTAL     ACCESS:   16101404  HIT:   15018310  MISS:    1083094
cpu0_DTLB LOAD      ACCESS:   10874853  HIT:    9809521  MISS:    1065332
cpu0_DTLB RFO       ACCESS:    5226551  HIT:    5208789  MISS:      17762
cpu0_DTLB PREFETCH  ACCESS:          0  HIT:          0  MISS:          0
cpu0_DTLB WRITEBACK ACCESS:          0  HIT:          0  MISS:          0
cpu0_DTLB TRANSLATION ACCESS:          0  HIT:          0  MISS:          0
cpu0_DTLB PREFETCH  REQUESTED:          0  ISSUED:          0  USEFUL:          0  USELESS:          0
cpu0_DTLB AVERAGE MISS LATENCY: 10.5037 cycles
cpu0_ITLB TOTAL     ACCESS:    1803354  HIT:    1803354  MISS:          0
cpu0_ITLB LOAD      ACCESS:    1803354  HIT:    1803354  MISS:          0
cpu0_ITLB RFO       ACCESS:          0  HIT:          0  MISS:          0
cpu0_ITLB PREFETCH  ACCESS:          0  HIT:          0  MISS:          0
cpu0_ITLB WRITEBACK ACCESS:          0  HIT:          0  MISS:          0
cpu0_ITLB TRANSLATION ACCESS:          0  HIT:          0  MISS:          0
cpu0_ITLB PREFETCH  REQUESTED:          0  ISSUED:          0  USEFUL:          0  USELESS:          0
cpu0_ITLB AVERAGE MISS LATENCY: -nan cycles
cpu0_L1I TOTAL     ACCESS:    2749637  HIT:    2749637  MISS:          0
cpu0_L1I LOAD      ACCESS:    2749637  HIT:    2749637  MISS:          0
cpu0_L1I RFO       ACCESS:          0  HIT:          0  MISS:          0
cpu0_L1I PREFETCH  ACCESS:          0  HIT:          0  MISS:          0
cpu0_L1I WRITEBACK ACCESS:          0  HIT:          0  MISS:          0
cpu0_L1I TRANSLATION ACCESS:          0  HIT:          0  MISS:          0
cpu0_L1I PREFETCH  REQUESTED:          0  ISSUED:          0  USEFUL:          0  USELESS:          0
cpu0_L1I AVERAGE MISS LATENCY: -nan cycles
cpu0_STLB TOTAL     ACCESS:    1083094  HIT:    1076142  MISS:       6952
cpu0_STLB LOAD      ACCESS:    1065332  HIT:    1060433  MISS:       4899
cpu0_STLB RFO       ACCESS:      17762  HIT:      15709  MISS:       2053
cpu0_STLB PREFETCH  ACCESS:          0  HIT:          0  MISS:          0
cpu0_STLB WRITEBACK ACCESS:          0  HIT:          0  MISS:          0
cpu0_STLB TRANSLATION ACCESS:          0  HIT:          0  MISS:          0
cpu0_STLB PREFETCH  REQUESTED:          0  ISSUED:          0  USEFUL:          0  USELESS:          0
cpu0_STLB AVERAGE MISS LATENCY: 209.443 cycles
cpu0_L1D TOTAL     ACCESS:   18597559  HIT:   17936753  MISS:     660806
cpu0_L1D LOAD      ACCESS:   10915593  HIT:   10434843  MISS:     480750
cpu0_L1D RFO       ACCESS:    7675328  HIT:    7499908  MISS:     175420
cpu0_L1D PREFETCH  ACCESS:          0  HIT:          0  MISS:          0
cpu0_L1D WRITEBACK ACCESS:          0  HIT:          0  MISS:          0
cpu0_L1D TRANSLATION ACCESS:       6638  HIT:       2002  MISS:       4636
cpu0_L1D PREFETCH  REQUESTED:          0  ISSUED:          0  USEFUL:          0  USELESS:          0
cpu0_L1D AVERAGE MISS LATENCY: 137.56 cycles
cpu0_L2C TOTAL     ACCESS:     838881  HIT:     409957  MISS:     428924
cpu0_L2C LOAD      ACCESS:     480722  HIT:     197426  MISS:     283296
cpu0_L2C RFO       ACCESS:     175373  HIT:      34910  MISS:     140463
cpu0_L2C PREFETCH  ACCESS:          0  HIT:          0  MISS:          0
cpu0_L2C WRITEBACK ACCESS:     178150  HIT:     173219  MISS:       4931
cpu0_L2C TRANSLATION ACCESS:       4636  HIT:       4402  MISS:        234
cpu0_L2C PREFETCH  REQUESTED:          0  ISSUED:          0  USEFUL:          0  USELESS:          0
cpu0_L2C AVERAGE MISS LATENCY: 194.964 cycles
LLC TOTAL     ACCESS:     580543  HIT:     244440  MISS:     336103
LLC LOAD      ACCESS:     283296  HIT:      92575  MISS:     190721
LLC RFO       ACCESS:     140463  HIT:      63416  MISS:      77047
LLC PREFETCH  ACCESS:          0  HIT:          0  MISS:          0
LLC WRITEBACK ACCESS:     156550  HIT:      88357  MISS:      68193
LLC TRANSLATION ACCESS:        234  HIT:         92  MISS:        142
LLC PREFETCH  REQUESTED:          0  ISSUED:          0  USEFUL:          0  USELESS:          0
LLC AVERAGE MISS LATENCY: 222.315 cycles
OPTgen accesses: 7361
OPTgen hits: 2772
OPTgen hit rate: 37.6579



DRAM Statistics
 CHANNEL 0
 RQ ROW_BUFFER_HIT:      18467  ROW_BUFFER_MISS:     249440
 DBUS AVG_CONGESTED_CYCLE:    3.99826
 WQ ROW_BUFFER_HIT:       5393  ROW_BUFFER_MISS:      78119  FULL:          0


CPU 0 Branch Prediction Accuracy: 98.8423% MPKI: 0.45019 Average ROB Occupancy at Mispredict: 205.638
Branch type MPKI
BRANCH_DIRECT_JUMP: 0
BRANCH_INDIRECT: 0
BRANCH_CONDITIONAL: 0.45019
BRANCH_DIRECT_CALL: 0
BRANCH_INDIRECT_CALL: 0
BRANCH_RETURN: 0

