
*** ChampSim Multicore Out-of-Order Simulator ***

Warmup Instructions: 10000000
Simulation Instructions: 100000000
Number of CPUs: 1
Off-chip DRAM Size: 4 GiB Channels: 1 Width: 64-bit Data Rate: 3200 MT/s

VirtualMemory physical capacity: 8588881920 num_ppages: 2096895
VirtualMemory page size: 4096 log2_page_size: 12

CPU 0 runs /datasets/cs240c-wi22-a00-public/data/Assignment2/cactusADM_1039B.trace.xz
CPU 0 Bimodal branch predictor
Basic BTB sets: 1024 ways: 8 indirect buffer size: 4096 RAS size: 64
Initialize Hawkeye state
Heartbeat CPU 0 instructions: 10000004 cycles: 3647107 heartbeat IPC: 2.7419 cumulative IPC: 2.7419 (Simulation time: 0 hr 0 min 54 sec) 

Warmup complete CPU 0 instructions: 10000004 cycles: 3647107 (Simulation time: 0 hr 0 min 54 sec) 

Heartbeat CPU 0 instructions: 20000004 cycles: 13368661 heartbeat IPC: 1.02864 cumulative IPC: 1.02864 (Simulation time: 0 hr 2 min 36 sec) 
Heartbeat CPU 0 instructions: 30000000 cycles: 22671588 heartbeat IPC: 1.07493 cumulative IPC: 1.05128 (Simulation time: 0 hr 4 min 16 sec) 
Heartbeat CPU 0 instructions: 40000000 cycles: 31297908 heartbeat IPC: 1.15924 cumulative IPC: 1.08496 (Simulation time: 0 hr 5 min 49 sec) 
Heartbeat CPU 0 instructions: 50000004 cycles: 39929510 heartbeat IPC: 1.15853 cumulative IPC: 1.10246 (Simulation time: 0 hr 7 min 23 sec) 
Heartbeat CPU 0 instructions: 60000002 cycles: 46018098 heartbeat IPC: 1.64242 cumulative IPC: 1.18005 (Simulation time: 0 hr 8 min 43 sec) 
Heartbeat CPU 0 instructions: 70000003 cycles: 54490065 heartbeat IPC: 1.18036 cumulative IPC: 1.1801 (Simulation time: 0 hr 10 min 18 sec) 
Heartbeat CPU 0 instructions: 80000004 cycles: 63005981 heartbeat IPC: 1.17427 cumulative IPC: 1.17927 (Simulation time: 0 hr 11 min 50 sec) 
Heartbeat CPU 0 instructions: 90000004 cycles: 71702496 heartbeat IPC: 1.14989 cumulative IPC: 1.17551 (Simulation time: 0 hr 13 min 26 sec) 
Heartbeat CPU 0 instructions: 100000000 cycles: 77788366 heartbeat IPC: 1.64315 cumulative IPC: 1.2139 (Simulation time: 0 hr 14 min 48 sec) 
Heartbeat CPU 0 instructions: 110000001 cycles: 86225895 heartbeat IPC: 1.18518 cumulative IPC: 1.21096 (Simulation time: 0 hr 16 min 21 sec) 
Finished CPU 0 instructions: 100000002 cycles: 82578789 cumulative IPC: 1.21096 (Simulation time: 0 hr 16 min 21 sec) 

ChampSim completed all CPUs

Region of Interest Statistics

CPU 0 cumulative IPC: 1.21096 instructions: 100000002 cycles: 82578789
cpu0_DTLB TOTAL     ACCESS:   22850704  HIT:   20801563  MISS:    2049141
cpu0_DTLB LOAD      ACCESS:   18939187  HIT:   17506014  MISS:    1433173
cpu0_DTLB RFO       ACCESS:    3911517  HIT:    3295549  MISS:     615968
cpu0_DTLB PREFETCH  ACCESS:          0  HIT:          0  MISS:          0
cpu0_DTLB WRITEBACK ACCESS:          0  HIT:          0  MISS:          0
cpu0_DTLB TRANSLATION ACCESS:          0  HIT:          0  MISS:          0
cpu0_DTLB PREFETCH  REQUESTED:          0  ISSUED:          0  USEFUL:          0  USELESS:          0
cpu0_DTLB AVERAGE MISS LATENCY: 15.8855 cycles
cpu0_ITLB TOTAL     ACCESS:    1451295  HIT:    1451295  MISS:          0
cpu0_ITLB LOAD      ACCESS:    1451295  HIT:    1451295  MISS:          0
cpu0_ITLB RFO       ACCESS:          0  HIT:          0  MISS:          0
cpu0_ITLB PREFETCH  ACCESS:          0  HIT:          0  MISS:          0
cpu0_ITLB WRITEBACK ACCESS:          0  HIT:          0  MISS:          0
cpu0_ITLB TRANSLATION ACCESS:          0  HIT:          0  MISS:          0
cpu0_ITLB PREFETCH  REQUESTED:          0  ISSUED:          0  USEFUL:          0  USELESS:          0
cpu0_ITLB AVERAGE MISS LATENCY: -nan cycles
cpu0_L1I TOTAL     ACCESS:    8112171  HIT:    8112168  MISS:          3
cpu0_L1I LOAD      ACCESS:    8112171  HIT:    8112168  MISS:          3
cpu0_L1I RFO       ACCESS:          0  HIT:          0  MISS:          0
cpu0_L1I PREFETCH  ACCESS:          0  HIT:          0  MISS:          0
cpu0_L1I WRITEBACK ACCESS:          0  HIT:          0  MISS:          0
cpu0_L1I TRANSLATION ACCESS:          0  HIT:          0  MISS:          0
cpu0_L1I PREFETCH  REQUESTED:          0  ISSUED:          0  USEFUL:          0  USELESS:          0
cpu0_L1I AVERAGE MISS LATENCY: 603 cycles
cpu0_STLB TOTAL     ACCESS:    2049141  HIT:    1129008  MISS:     920133
cpu0_STLB LOAD      ACCESS:    1433173  HIT:     835591  MISS:     597582
cpu0_STLB RFO       ACCESS:     615968  HIT:     293417  MISS:     322551
cpu0_STLB PREFETCH  ACCESS:          0  HIT:          0  MISS:          0
cpu0_STLB WRITEBACK ACCESS:          0  HIT:          0  MISS:          0
cpu0_STLB TRANSLATION ACCESS:          0  HIT:          0  MISS:          0
cpu0_STLB PREFETCH  REQUESTED:          0  ISSUED:          0  USEFUL:          0  USELESS:          0
cpu0_STLB AVERAGE MISS LATENCY: 15.1773 cycles
cpu0_L1D TOTAL     ACCESS:   37601704  HIT:   36277944  MISS:    1323760
cpu0_L1D LOAD      ACCESS:   25701278  HIT:   24648863  MISS:    1052415
cpu0_L1D RFO       ACCESS:   10981161  HIT:   10715790  MISS:     265371
cpu0_L1D PREFETCH  ACCESS:          0  HIT:          0  MISS:          0
cpu0_L1D WRITEBACK ACCESS:          0  HIT:          0  MISS:          0
cpu0_L1D TRANSLATION ACCESS:     919265  HIT:     913291  MISS:       5974
cpu0_L1D PREFETCH  REQUESTED:          0  ISSUED:          0  USEFUL:          0  USELESS:          0
cpu0_L1D AVERAGE MISS LATENCY: 283.975 cycles
cpu0_L2C TOTAL     ACCESS:    1593034  HIT:     694213  MISS:     898821
cpu0_L2C LOAD      ACCESS:    1052417  HIT:     419494  MISS:     632923
cpu0_L2C RFO       ACCESS:     265371  HIT:          0  MISS:     265371
cpu0_L2C PREFETCH  ACCESS:          0  HIT:          0  MISS:          0
cpu0_L2C WRITEBACK ACCESS:     269272  HIT:     269059  MISS:        213
cpu0_L2C TRANSLATION ACCESS:       5974  HIT:       5660  MISS:        314
cpu0_L2C PREFETCH  REQUESTED:          0  ISSUED:          0  USEFUL:          0  USELESS:          0
cpu0_L2C AVERAGE MISS LATENCY: 402.011 cycles
LLC TOTAL     ACCESS:    1165772  HIT:     345067  MISS:     820705
LLC LOAD      ACCESS:     632923  HIT:     154373  MISS:     478550
LLC RFO       ACCESS:     265371  HIT:      81497  MISS:     183874
LLC PREFETCH  ACCESS:          0  HIT:          0  MISS:          0
LLC WRITEBACK ACCESS:     267164  HIT:     109168  MISS:     157996
LLC TRANSLATION ACCESS:        314  HIT:         29  MISS:        285
LLC PREFETCH  REQUESTED:          0  ISSUED:          0  USEFUL:          0  USELESS:          0
LLC AVERAGE MISS LATENCY: 417.28 cycles
OPTgen accesses: 15020
OPTgen hits: 4769
OPTgen hit rate: 31.751



DRAM Statistics
 CHANNEL 0
 RQ ROW_BUFFER_HIT:       6571  ROW_BUFFER_MISS:     656125
 DBUS AVG_CONGESTED_CYCLE:    3.97726
 WQ ROW_BUFFER_HIT:      19185  ROW_BUFFER_MISS:     221283  FULL:        305


CPU 0 Branch Prediction Accuracy: 97.7479% MPKI: 0.04701 Average ROB Occupancy at Mispredict: 283.924
Branch type MPKI
BRANCH_DIRECT_JUMP: 0
BRANCH_INDIRECT: 0
BRANCH_CONDITIONAL: 0.04701
BRANCH_DIRECT_CALL: 0
BRANCH_INDIRECT_CALL: 0
BRANCH_RETURN: 0

