
*** ChampSim Multicore Out-of-Order Simulator ***

Warmup Instructions: 10000000
Simulation Instructions: 100000000
Number of CPUs: 1
Off-chip DRAM Size: 4 GiB Channels: 1 Width: 64-bit Data Rate: 3200 MT/s

VirtualMemory physical capacity: 8588881920 num_ppages: 2096895
VirtualMemory page size: 4096 log2_page_size: 12

CPU 0 runs /datasets/cs240c-wi22-a00-public/data/Assignment2/zeusmp_600B.trace.xz
CPU 0 Bimodal branch predictor
Basic BTB sets: 1024 ways: 8 indirect buffer size: 4096 RAS size: 64
Initialize Hawkeye state
Heartbeat CPU 0 instructions: 10000001 cycles: 2573841 heartbeat IPC: 3.88524 cumulative IPC: 3.88524 (Simulation time: 0 hr 0 min 29 sec) 

Warmup complete CPU 0 instructions: 10000001 cycles: 2573841 (Simulation time: 0 hr 0 min 29 sec) 

Heartbeat CPU 0 instructions: 20000001 cycles: 7436195 heartbeat IPC: 2.05662 cumulative IPC: 2.05662 (Simulation time: 0 hr 1 min 17 sec) 
Heartbeat CPU 0 instructions: 30000004 cycles: 12895082 heartbeat IPC: 1.83188 cumulative IPC: 1.93775 (Simulation time: 0 hr 2 min 4 sec) 
Heartbeat CPU 0 instructions: 40000000 cycles: 18381853 heartbeat IPC: 1.82256 cumulative IPC: 1.89777 (Simulation time: 0 hr 2 min 51 sec) 
Heartbeat CPU 0 instructions: 50000001 cycles: 23861737 heartbeat IPC: 1.82486 cumulative IPC: 1.879 (Simulation time: 0 hr 3 min 39 sec) 
Heartbeat CPU 0 instructions: 60000000 cycles: 29367747 heartbeat IPC: 1.8162 cumulative IPC: 1.8661 (Simulation time: 0 hr 4 min 27 sec) 
Heartbeat CPU 0 instructions: 70000003 cycles: 34860718 heartbeat IPC: 1.82051 cumulative IPC: 1.85834 (Simulation time: 0 hr 5 min 12 sec) 
Heartbeat CPU 0 instructions: 80000000 cycles: 40355840 heartbeat IPC: 1.8198 cumulative IPC: 1.85273 (Simulation time: 0 hr 5 min 57 sec) 
Heartbeat CPU 0 instructions: 90000001 cycles: 45858491 heartbeat IPC: 1.81731 cumulative IPC: 1.84823 (Simulation time: 0 hr 6 min 39 sec) 
Heartbeat CPU 0 instructions: 100000001 cycles: 51353787 heartbeat IPC: 1.81974 cumulative IPC: 1.84502 (Simulation time: 0 hr 7 min 23 sec) 
Heartbeat CPU 0 instructions: 110000003 cycles: 56846758 heartbeat IPC: 1.82051 cumulative IPC: 1.84254 (Simulation time: 0 hr 8 min 11 sec) 
Finished CPU 0 instructions: 100000002 cycles: 54272917 cumulative IPC: 1.84254 (Simulation time: 0 hr 8 min 11 sec) 

ChampSim completed all CPUs

Region of Interest Statistics

CPU 0 cumulative IPC: 1.84254 instructions: 100000002 cycles: 54272917
cpu0_DTLB TOTAL     ACCESS:   17107030  HIT:   16951662  MISS:     155368
cpu0_DTLB LOAD      ACCESS:   12988098  HIT:   12859772  MISS:     128326
cpu0_DTLB RFO       ACCESS:    4118932  HIT:    4091890  MISS:      27042
cpu0_DTLB PREFETCH  ACCESS:          0  HIT:          0  MISS:          0
cpu0_DTLB WRITEBACK ACCESS:          0  HIT:          0  MISS:          0
cpu0_DTLB TRANSLATION ACCESS:          0  HIT:          0  MISS:          0
cpu0_DTLB PREFETCH  REQUESTED:          0  ISSUED:          0  USEFUL:          0  USELESS:          0
cpu0_DTLB AVERAGE MISS LATENCY: 15.465 cycles
cpu0_ITLB TOTAL     ACCESS:    2611010  HIT:    2611007  MISS:          3
cpu0_ITLB LOAD      ACCESS:    2611010  HIT:    2611007  MISS:          3
cpu0_ITLB RFO       ACCESS:          0  HIT:          0  MISS:          0
cpu0_ITLB PREFETCH  ACCESS:          0  HIT:          0  MISS:          0
cpu0_ITLB WRITEBACK ACCESS:          0  HIT:          0  MISS:          0
cpu0_ITLB TRANSLATION ACCESS:          0  HIT:          0  MISS:          0
cpu0_ITLB PREFETCH  REQUESTED:          0  ISSUED:          0  USEFUL:          0  USELESS:          0
cpu0_ITLB AVERAGE MISS LATENCY: 428.667 cycles
cpu0_L1I TOTAL     ACCESS:    5803761  HIT:    5803658  MISS:        103
cpu0_L1I LOAD      ACCESS:    5803761  HIT:    5803658  MISS:        103
cpu0_L1I RFO       ACCESS:          0  HIT:          0  MISS:          0
cpu0_L1I PREFETCH  ACCESS:          0  HIT:          0  MISS:          0
cpu0_L1I WRITEBACK ACCESS:          0  HIT:          0  MISS:          0
cpu0_L1I TRANSLATION ACCESS:          0  HIT:          0  MISS:          0
cpu0_L1I PREFETCH  REQUESTED:          0  ISSUED:          0  USEFUL:          0  USELESS:          0
cpu0_L1I AVERAGE MISS LATENCY: 266.398 cycles
cpu0_STLB TOTAL     ACCESS:     155371  HIT:     150380  MISS:       4991
cpu0_STLB LOAD      ACCESS:     128329  HIT:     123390  MISS:       4939
cpu0_STLB RFO       ACCESS:      27042  HIT:      26990  MISS:         52
cpu0_STLB PREFETCH  ACCESS:          0  HIT:          0  MISS:          0
cpu0_STLB WRITEBACK ACCESS:          0  HIT:          0  MISS:          0
cpu0_STLB TRANSLATION ACCESS:          0  HIT:          0  MISS:          0
cpu0_STLB PREFETCH  REQUESTED:          0  ISSUED:          0  USEFUL:          0  USELESS:          0
cpu0_STLB AVERAGE MISS LATENCY: 193.236 cycles
cpu0_L1D TOTAL     ACCESS:   20413554  HIT:   20092636  MISS:     320918
cpu0_L1D LOAD      ACCESS:   13176541  HIT:   12859397  MISS:     317144
cpu0_L1D RFO       ACCESS:    7232023  HIT:    7228576  MISS:       3447
cpu0_L1D PREFETCH  ACCESS:          0  HIT:          0  MISS:          0
cpu0_L1D WRITEBACK ACCESS:          0  HIT:          0  MISS:          0
cpu0_L1D TRANSLATION ACCESS:       4990  HIT:       4663  MISS:        327
cpu0_L1D PREFETCH  REQUESTED:          0  ISSUED:          0  USEFUL:          0  USELESS:          0
cpu0_L1D AVERAGE MISS LATENCY: 183.663 cycles
cpu0_L2C TOTAL     ACCESS:     383991  HIT:      66698  MISS:     317293
cpu0_L2C LOAD      ACCESS:     317247  HIT:       3425  MISS:     313822
cpu0_L2C RFO       ACCESS:       3447  HIT:          1  MISS:       3446
cpu0_L2C PREFETCH  ACCESS:          0  HIT:          0  MISS:          0
cpu0_L2C WRITEBACK ACCESS:      62970  HIT:      62970  MISS:          0
cpu0_L2C TRANSLATION ACCESS:        327  HIT:        302  MISS:         25
cpu0_L2C PREFETCH  REQUESTED:          0  ISSUED:          0  USEFUL:          0  USELESS:          0
cpu0_L2C AVERAGE MISS LATENCY: 174.706 cycles
LLC TOTAL     ACCESS:     380236  HIT:       9792  MISS:     370444
LLC LOAD      ACCESS:     313822  HIT:       4811  MISS:     309011
LLC RFO       ACCESS:       3446  HIT:          0  MISS:       3446
LLC PREFETCH  ACCESS:          0  HIT:          0  MISS:          0
LLC WRITEBACK ACCESS:      62943  HIT:       4970  MISS:      57973
LLC TRANSLATION ACCESS:         25  HIT:         11  MISS:         14
LLC PREFETCH  REQUESTED:          0  ISSUED:          0  USEFUL:          0  USELESS:          0
LLC AVERAGE MISS LATENCY: 131.652 cycles
OPTgen accesses: 5474
OPTgen hits: 120
OPTgen hit rate: 2.19218



DRAM Statistics
 CHANNEL 0
 RQ ROW_BUFFER_HIT:      60406  ROW_BUFFER_MISS:     252066
 DBUS AVG_CONGESTED_CYCLE:    3.74564
 WQ ROW_BUFFER_HIT:      22068  ROW_BUFFER_MISS:      41884  FULL:          0


CPU 0 Branch Prediction Accuracy: 96.8332% MPKI: 1.13776 Average ROB Occupancy at Mispredict: 151.96
Branch type MPKI
BRANCH_DIRECT_JUMP: 3e-05
BRANCH_INDIRECT: 0
BRANCH_CONDITIONAL: 1.13771
BRANCH_DIRECT_CALL: 1e-05
BRANCH_INDIRECT_CALL: 0
BRANCH_RETURN: 1e-05

