
*** ChampSim Multicore Out-of-Order Simulator ***

Warmup Instructions: 10000000
Simulation Instructions: 100000000
Number of CPUs: 1
Off-chip DRAM Size: 4 GiB Channels: 1 Width: 64-bit Data Rate: 3200 MT/s

VirtualMemory physical capacity: 8588881920 num_ppages: 2096895
VirtualMemory page size: 4096 log2_page_size: 12

CPU 0 runs /datasets/cs240c-wi22-a00-public/data/Assignment2/lbm_564B.trace.xz
CPU 0 Bimodal branch predictor
Basic BTB sets: 1024 ways: 8 indirect buffer size: 4096 RAS size: 64
Initialize Hawkeye state
Heartbeat CPU 0 instructions: 10000000 cycles: 2507073 heartbeat IPC: 3.98872 cumulative IPC: 3.98872 (Simulation time: 0 hr 0 min 25 sec) 

Warmup complete CPU 0 instructions: 10000004 cycles: 2507074 (Simulation time: 0 hr 0 min 25 sec) 

Heartbeat CPU 0 instructions: 20000004 cycles: 31520514 heartbeat IPC: 0.344668 cumulative IPC: 0.344668 (Simulation time: 0 hr 2 min 18 sec) 
Heartbeat CPU 0 instructions: 30000000 cycles: 87325586 heartbeat IPC: 0.179195 cumulative IPC: 0.235798 (Simulation time: 0 hr 6 min 25 sec) 
Heartbeat CPU 0 instructions: 40000000 cycles: 115871270 heartbeat IPC: 0.350316 cumulative IPC: 0.264634 (Simulation time: 0 hr 8 min 19 sec) 
Heartbeat CPU 0 instructions: 50000000 cycles: 145883870 heartbeat IPC: 0.333193 cumulative IPC: 0.278985 (Simulation time: 0 hr 10 min 20 sec) 
Heartbeat CPU 0 instructions: 60000001 cycles: 174586521 heartbeat IPC: 0.3484 cumulative IPC: 0.290563 (Simulation time: 0 hr 12 min 16 sec) 
Heartbeat CPU 0 instructions: 70000002 cycles: 204972489 heartbeat IPC: 0.329099 cumulative IPC: 0.296347 (Simulation time: 0 hr 14 min 21 sec) 
Heartbeat CPU 0 instructions: 80000004 cycles: 236553670 heartbeat IPC: 0.316644 cumulative IPC: 0.299086 (Simulation time: 0 hr 16 min 32 sec) 
Heartbeat CPU 0 instructions: 90000003 cycles: 269073525 heartbeat IPC: 0.307504 cumulative IPC: 0.300113 (Simulation time: 0 hr 18 min 43 sec) 
Heartbeat CPU 0 instructions: 100000004 cycles: 301317945 heartbeat IPC: 0.310131 cumulative IPC: 0.301194 (Simulation time: 0 hr 20 min 52 sec) 
Heartbeat CPU 0 instructions: 110000003 cycles: 334129795 heartbeat IPC: 0.304768 cumulative IPC: 0.301547 (Simulation time: 0 hr 23 min 7 sec) 
Finished CPU 0 instructions: 100000004 cycles: 331622722 cumulative IPC: 0.301547 (Simulation time: 0 hr 23 min 7 sec) 

ChampSim completed all CPUs

Region of Interest Statistics

CPU 0 cumulative IPC: 0.301547 instructions: 100000004 cycles: 331622722
cpu0_DTLB TOTAL     ACCESS:   13894944  HIT:   13842170  MISS:      52774
cpu0_DTLB LOAD      ACCESS:    6990207  HIT:    6977008  MISS:      13199
cpu0_DTLB RFO       ACCESS:    6904737  HIT:    6865162  MISS:      39575
cpu0_DTLB PREFETCH  ACCESS:          0  HIT:          0  MISS:          0
cpu0_DTLB WRITEBACK ACCESS:          0  HIT:          0  MISS:          0
cpu0_DTLB TRANSLATION ACCESS:          0  HIT:          0  MISS:          0
cpu0_DTLB PREFETCH  REQUESTED:          0  ISSUED:          0  USEFUL:          0  USELESS:          0
cpu0_DTLB AVERAGE MISS LATENCY: 438.095 cycles
cpu0_ITLB TOTAL     ACCESS:     149763  HIT:     149762  MISS:          1
cpu0_ITLB LOAD      ACCESS:     149763  HIT:     149762  MISS:          1
cpu0_ITLB RFO       ACCESS:          0  HIT:          0  MISS:          0
cpu0_ITLB PREFETCH  ACCESS:          0  HIT:          0  MISS:          0
cpu0_ITLB WRITEBACK ACCESS:          0  HIT:          0  MISS:          0
cpu0_ITLB TRANSLATION ACCESS:          0  HIT:          0  MISS:          0
cpu0_ITLB PREFETCH  REQUESTED:          0  ISSUED:          0  USEFUL:          0  USELESS:          0
cpu0_ITLB AVERAGE MISS LATENCY: 1961 cycles
cpu0_L1I TOTAL     ACCESS:         12  HIT:          6  MISS:          6
cpu0_L1I LOAD      ACCESS:         12  HIT:          6  MISS:          6
cpu0_L1I RFO       ACCESS:          0  HIT:          0  MISS:          0
cpu0_L1I PREFETCH  ACCESS:          0  HIT:          0  MISS:          0
cpu0_L1I WRITEBACK ACCESS:          0  HIT:          0  MISS:          0
cpu0_L1I TRANSLATION ACCESS:          0  HIT:          0  MISS:          0
cpu0_L1I PREFETCH  REQUESTED:          0  ISSUED:          0  USEFUL:          0  USELESS:          0
cpu0_L1I AVERAGE MISS LATENCY: 872.333 cycles
cpu0_STLB TOTAL     ACCESS:      52775  HIT:          5  MISS:      52770
cpu0_STLB LOAD      ACCESS:      13200  HIT:          0  MISS:      13200
cpu0_STLB RFO       ACCESS:      39575  HIT:          5  MISS:      39570
cpu0_STLB PREFETCH  ACCESS:          0  HIT:          0  MISS:          0
cpu0_STLB WRITEBACK ACCESS:          0  HIT:          0  MISS:          0
cpu0_STLB TRANSLATION ACCESS:          0  HIT:          0  MISS:          0
cpu0_STLB PREFETCH  REQUESTED:          0  ISSUED:          0  USEFUL:          0  USELESS:          0
cpu0_STLB AVERAGE MISS LATENCY: 429.164 cycles
cpu0_L1D TOTAL     ACCESS:   15376190  HIT:    9809999  MISS:    5566191
cpu0_L1D LOAD      ACCESS:    4368315  HIT:    3524733  MISS:     843582
cpu0_L1D RFO       ACCESS:   10955120  HIT:    6232562  MISS:    4722558
cpu0_L1D PREFETCH  ACCESS:          0  HIT:          0  MISS:          0
cpu0_L1D WRITEBACK ACCESS:          0  HIT:          0  MISS:          0
cpu0_L1D TRANSLATION ACCESS:      52755  HIT:      52704  MISS:         51
cpu0_L1D PREFETCH  REQUESTED:          0  ISSUED:          0  USEFUL:          0  USELESS:          0
cpu0_L1D AVERAGE MISS LATENCY: 436.4 cycles
cpu0_L2C TOTAL     ACCESS:   10288752  HIT:    6913181  MISS:    3375571
cpu0_L2C LOAD      ACCESS:     843588  HIT:        215  MISS:     843373
cpu0_L2C RFO       ACCESS:    4722557  HIT:    2190535  MISS:    2532022
cpu0_L2C PREFETCH  ACCESS:          0  HIT:          0  MISS:          0
cpu0_L2C WRITEBACK ACCESS:    4722556  HIT:    4722431  MISS:        125
cpu0_L2C TRANSLATION ACCESS:         51  HIT:          0  MISS:         51
cpu0_L2C PREFETCH  REQUESTED:          0  ISSUED:          0  USEFUL:          0  USELESS:          0
cpu0_L2C AVERAGE MISS LATENCY: 700.158 cycles
LLC TOTAL     ACCESS:    5907510  HIT:    1752451  MISS:    4155059
LLC LOAD      ACCESS:     843373  HIT:         40  MISS:     843333
LLC RFO       ACCESS:    2532022  HIT:     672101  MISS:    1859921
LLC PREFETCH  ACCESS:          0  HIT:          0  MISS:          0
LLC WRITEBACK ACCESS:    2532064  HIT:    1080293  MISS:    1451771
LLC TRANSLATION ACCESS:         51  HIT:         17  MISS:         34
LLC PREFETCH  REQUESTED:          0  ISSUED:          0  USEFUL:          0  USELESS:          0
LLC AVERAGE MISS LATENCY: 551.749 cycles
OPTgen accesses: 57392
OPTgen hits: 15003
OPTgen hit rate: 26.1413



DRAM Statistics
 CHANNEL 0
 RQ ROW_BUFFER_HIT:      49209  ROW_BUFFER_MISS:    2653921
 DBUS AVG_CONGESTED_CYCLE:    3.99459
 WQ ROW_BUFFER_HIT:      27952  ROW_BUFFER_MISS:    2140429  FULL:        270


CPU 0 Branch Prediction Accuracy: 99.0902% MPKI: 0.11542 Average ROB Occupancy at Mispredict: 182.107
Branch type MPKI
BRANCH_DIRECT_JUMP: 2e-05
BRANCH_INDIRECT: 0
BRANCH_CONDITIONAL: 0.11536
BRANCH_DIRECT_CALL: 2e-05
BRANCH_INDIRECT_CALL: 0
BRANCH_RETURN: 2e-05

