
*** ChampSim Multicore Out-of-Order Simulator ***

Warmup Instructions: 10000000
Simulation Instructions: 100000000
Number of CPUs: 1
Off-chip DRAM Size: 4 GiB Channels: 1 Width: 64-bit Data Rate: 3200 MT/s

VirtualMemory physical capacity: 8588881920 num_ppages: 2096895
VirtualMemory page size: 4096 log2_page_size: 12

CPU 0 runs /datasets/cs240c-wi22-a00-public/data/Assignment2/GemsFDTD_712B.trace.xz
CPU 0 Bimodal branch predictor
Basic BTB sets: 1024 ways: 8 indirect buffer size: 4096 RAS size: 64
Initialize Hawkeye state
Heartbeat CPU 0 instructions: 10000003 cycles: 4479620 heartbeat IPC: 2.23233 cumulative IPC: 2.23233 (Simulation time: 0 hr 1 min 14 sec) 

Warmup complete CPU 0 instructions: 10000003 cycles: 4479620 (Simulation time: 0 hr 1 min 14 sec) 

Heartbeat CPU 0 instructions: 20000000 cycles: 44080113 heartbeat IPC: 0.252522 cumulative IPC: 0.252522 (Simulation time: 0 hr 5 min 51 sec) 
Heartbeat CPU 0 instructions: 30000001 cycles: 84239760 heartbeat IPC: 0.249006 cumulative IPC: 0.250752 (Simulation time: 0 hr 10 min 28 sec) 
Heartbeat CPU 0 instructions: 40000004 cycles: 124292139 heartbeat IPC: 0.249673 cumulative IPC: 0.250391 (Simulation time: 0 hr 15 min 12 sec) 
Heartbeat CPU 0 instructions: 50000004 cycles: 163947870 heartbeat IPC: 0.25217 cumulative IPC: 0.250834 (Simulation time: 0 hr 20 min 0 sec) 
Heartbeat CPU 0 instructions: 60000003 cycles: 203860680 heartbeat IPC: 0.250546 cumulative IPC: 0.250776 (Simulation time: 0 hr 24 min 49 sec) 
Heartbeat CPU 0 instructions: 70000002 cycles: 243945855 heartbeat IPC: 0.249469 cumulative IPC: 0.250557 (Simulation time: 0 hr 29 min 34 sec) 
Heartbeat CPU 0 instructions: 80000000 cycles: 278586013 heartbeat IPC: 0.288682 cumulative IPC: 0.255375 (Simulation time: 0 hr 32 min 46 sec) 
Heartbeat CPU 0 instructions: 90000000 cycles: 312340969 heartbeat IPC: 0.296253 cumulative IPC: 0.259857 (Simulation time: 0 hr 35 min 47 sec) 
Heartbeat CPU 0 instructions: 100000001 cycles: 347526805 heartbeat IPC: 0.284205 cumulative IPC: 0.262355 (Simulation time: 0 hr 38 min 53 sec) 
Heartbeat CPU 0 instructions: 110000002 cycles: 382762352 heartbeat IPC: 0.283804 cumulative IPC: 0.264353 (Simulation time: 0 hr 41 min 52 sec) 
Finished CPU 0 instructions: 100000004 cycles: 378282733 cumulative IPC: 0.264353 (Simulation time: 0 hr 41 min 52 sec) 

ChampSim completed all CPUs

Region of Interest Statistics

CPU 0 cumulative IPC: 0.264353 instructions: 100000004 cycles: 378282733
cpu0_DTLB TOTAL     ACCESS:   29841678  HIT:   29639032  MISS:     202646
cpu0_DTLB LOAD      ACCESS:   23899549  HIT:   23696903  MISS:     202646
cpu0_DTLB RFO       ACCESS:    5942129  HIT:    5942129  MISS:          0
cpu0_DTLB PREFETCH  ACCESS:          0  HIT:          0  MISS:          0
cpu0_DTLB WRITEBACK ACCESS:          0  HIT:          0  MISS:          0
cpu0_DTLB TRANSLATION ACCESS:          0  HIT:          0  MISS:          0
cpu0_DTLB PREFETCH  REQUESTED:          0  ISSUED:          0  USEFUL:          0  USELESS:          0
cpu0_DTLB AVERAGE MISS LATENCY: 158.12 cycles
cpu0_ITLB TOTAL     ACCESS:    1685982  HIT:    1685976  MISS:          6
cpu0_ITLB LOAD      ACCESS:    1685982  HIT:    1685976  MISS:          6
cpu0_ITLB RFO       ACCESS:          0  HIT:          0  MISS:          0
cpu0_ITLB PREFETCH  ACCESS:          0  HIT:          0  MISS:          0
cpu0_ITLB WRITEBACK ACCESS:          0  HIT:          0  MISS:          0
cpu0_ITLB TRANSLATION ACCESS:          0  HIT:          0  MISS:          0
cpu0_ITLB PREFETCH  REQUESTED:          0  ISSUED:          0  USEFUL:          0  USELESS:          0
cpu0_ITLB AVERAGE MISS LATENCY: 280.833 cycles
cpu0_L1I TOTAL     ACCESS:    3165510  HIT:    3165415  MISS:         95
cpu0_L1I LOAD      ACCESS:    3165510  HIT:    3165415  MISS:         95
cpu0_L1I RFO       ACCESS:          0  HIT:          0  MISS:          0
cpu0_L1I PREFETCH  ACCESS:          0  HIT:          0  MISS:          0
cpu0_L1I WRITEBACK ACCESS:          0  HIT:          0  MISS:          0
cpu0_L1I TRANSLATION ACCESS:          0  HIT:          0  MISS:          0
cpu0_L1I PREFETCH  REQUESTED:          0  ISSUED:          0  USEFUL:          0  USELESS:          0
cpu0_L1I AVERAGE MISS LATENCY: 386.989 cycles
cpu0_STLB TOTAL     ACCESS:     202652  HIT:      49544  MISS:     153108
cpu0_STLB LOAD      ACCESS:     202652  HIT:      49544  MISS:     153108
cpu0_STLB RFO       ACCESS:          0  HIT:          0  MISS:          0
cpu0_STLB PREFETCH  ACCESS:          0  HIT:          0  MISS:          0
cpu0_STLB WRITEBACK ACCESS:          0  HIT:          0  MISS:          0
cpu0_STLB TRANSLATION ACCESS:          0  HIT:          0  MISS:          0
cpu0_STLB PREFETCH  REQUESTED:          0  ISSUED:          0  USEFUL:          0  USELESS:          0
cpu0_STLB AVERAGE MISS LATENCY: 197.312 cycles
cpu0_L1D TOTAL     ACCESS:   29753962  HIT:   26405902  MISS:    3348060
cpu0_L1D LOAD      ACCESS:   18522032  HIT:   15176176  MISS:    3345856
cpu0_L1D RFO       ACCESS:   11079382  HIT:   11079362  MISS:         20
cpu0_L1D PREFETCH  ACCESS:          0  HIT:          0  MISS:          0
cpu0_L1D WRITEBACK ACCESS:          0  HIT:          0  MISS:          0
cpu0_L1D TRANSLATION ACCESS:     152548  HIT:     150364  MISS:       2184
cpu0_L1D PREFETCH  REQUESTED:          0  ISSUED:          0  USEFUL:          0  USELESS:          0
cpu0_L1D AVERAGE MISS LATENCY: 680.03 cycles
cpu0_L2C TOTAL     ACCESS:    4725126  HIT:    1561151  MISS:    3163975
cpu0_L2C LOAD      ACCESS:    3345951  HIT:     182085  MISS:    3163866
cpu0_L2C RFO       ACCESS:         20  HIT:          0  MISS:         20
cpu0_L2C PREFETCH  ACCESS:          0  HIT:          0  MISS:          0
cpu0_L2C WRITEBACK ACCESS:    1376971  HIT:    1376967  MISS:          4
cpu0_L2C TRANSLATION ACCESS:       2184  HIT:       2099  MISS:         85
cpu0_L2C PREFETCH  REQUESTED:          0  ISSUED:          0  USEFUL:          0  USELESS:          0
cpu0_L2C AVERAGE MISS LATENCY: 707.942 cycles
LLC TOTAL     ACCESS:    4539476  HIT:     722511  MISS:    3816965
LLC LOAD      ACCESS:    3163866  HIT:     589297  MISS:    2574569
LLC RFO       ACCESS:         20  HIT:          0  MISS:         20
LLC PREFETCH  ACCESS:          0  HIT:          0  MISS:          0
LLC WRITEBACK ACCESS:    1375505  HIT:     133174  MISS:    1242331
LLC TRANSLATION ACCESS:         85  HIT:         40  MISS:         45
LLC PREFETCH  REQUESTED:          0  ISSUED:          0  USEFUL:          0  USELESS:          0
LLC AVERAGE MISS LATENCY: 569.423 cycles
OPTgen accesses: 55327
OPTgen hits: 12598
OPTgen hit rate: 22.7701



DRAM Statistics
 CHANNEL 0
 RQ ROW_BUFFER_HIT:       8877  ROW_BUFFER_MISS:    2565757
 DBUS AVG_CONGESTED_CYCLE:    3.99793
 WQ ROW_BUFFER_HIT:      18053  ROW_BUFFER_MISS:    1359070  FULL:          0


CPU 0 Branch Prediction Accuracy: 90.9863% MPKI: 1.62566 Average ROB Occupancy at Mispredict: 227.512
Branch type MPKI
BRANCH_DIRECT_JUMP: 5e-05
BRANCH_INDIRECT: 0
BRANCH_CONDITIONAL: 1.62559
BRANCH_DIRECT_CALL: 1e-05
BRANCH_INDIRECT_CALL: 0
BRANCH_RETURN: 1e-05

