
*** ChampSim Multicore Out-of-Order Simulator ***

Warmup Instructions: 10000000
Simulation Instructions: 100000000
Number of CPUs: 1
Off-chip DRAM Size: 4 GiB Channels: 1 Width: 64-bit Data Rate: 3200 MT/s

VirtualMemory physical capacity: 8588881920 num_ppages: 2096895
VirtualMemory page size: 4096 log2_page_size: 12

CPU 0 runs /datasets/cs240c-wi22-a00-public/data/Assignment2/bzip2_183B.trace.xz
CPU 0 Bimodal branch predictor
Basic BTB sets: 1024 ways: 8 indirect buffer size: 4096 RAS size: 64
Initialize Hawkeye state
Heartbeat CPU 0 instructions: 10000000 cycles: 3166438 heartbeat IPC: 3.15812 cumulative IPC: 3.15812 (Simulation time: 0 hr 0 min 41 sec) 

Warmup complete CPU 0 instructions: 10000005 cycles: 3166440 (Simulation time: 0 hr 0 min 41 sec) 

Heartbeat CPU 0 instructions: 20000000 cycles: 10321152 heartbeat IPC: 1.39768 cumulative IPC: 1.39768 (Simulation time: 0 hr 1 min 18 sec) 
Heartbeat CPU 0 instructions: 30000001 cycles: 17853363 heartbeat IPC: 1.32763 cumulative IPC: 1.36176 (Simulation time: 0 hr 1 min 53 sec) 
Heartbeat CPU 0 instructions: 40000004 cycles: 25254909 heartbeat IPC: 1.35107 cumulative IPC: 1.35817 (Simulation time: 0 hr 2 min 27 sec) 
Heartbeat CPU 0 instructions: 50000001 cycles: 33042660 heartbeat IPC: 1.28407 cumulative IPC: 1.33886 (Simulation time: 0 hr 3 min 2 sec) 
Heartbeat CPU 0 instructions: 60000004 cycles: 40625335 heartbeat IPC: 1.3188 cumulative IPC: 1.3348 (Simulation time: 0 hr 3 min 37 sec) 
Heartbeat CPU 0 instructions: 70000002 cycles: 49165721 heartbeat IPC: 1.17091 cumulative IPC: 1.30437 (Simulation time: 0 hr 4 min 11 sec) 
Heartbeat CPU 0 instructions: 80000000 cycles: 57072002 heartbeat IPC: 1.26482 cumulative IPC: 1.29857 (Simulation time: 0 hr 4 min 45 sec) 
Heartbeat CPU 0 instructions: 90000002 cycles: 65348425 heartbeat IPC: 1.20825 cumulative IPC: 1.28655 (Simulation time: 0 hr 5 min 22 sec) 
Heartbeat CPU 0 instructions: 100000002 cycles: 74491471 heartbeat IPC: 1.09373 cumulative IPC: 1.26183 (Simulation time: 0 hr 5 min 58 sec) 
Heartbeat CPU 0 instructions: 110000003 cycles: 83563298 heartbeat IPC: 1.10231 cumulative IPC: 1.24383 (Simulation time: 0 hr 6 min 33 sec) 
Finished CPU 0 instructions: 100000003 cycles: 80396859 cumulative IPC: 1.24383 (Simulation time: 0 hr 6 min 33 sec) 

ChampSim completed all CPUs

Region of Interest Statistics

CPU 0 cumulative IPC: 1.24383 instructions: 100000003 cycles: 80396859
cpu0_DTLB TOTAL     ACCESS:   21899161  HIT:   21442931  MISS:     456230
cpu0_DTLB LOAD      ACCESS:   17507336  HIT:   17192397  MISS:     314939
cpu0_DTLB RFO       ACCESS:    4391825  HIT:    4250534  MISS:     141291
cpu0_DTLB PREFETCH  ACCESS:          0  HIT:          0  MISS:          0
cpu0_DTLB WRITEBACK ACCESS:          0  HIT:          0  MISS:          0
cpu0_DTLB TRANSLATION ACCESS:          0  HIT:          0  MISS:          0
cpu0_DTLB PREFETCH  REQUESTED:          0  ISSUED:          0  USEFUL:          0  USELESS:          0
cpu0_DTLB AVERAGE MISS LATENCY: 9.26002 cycles
cpu0_ITLB TOTAL     ACCESS:   10078673  HIT:   10078673  MISS:          0
cpu0_ITLB LOAD      ACCESS:   10078673  HIT:   10078673  MISS:          0
cpu0_ITLB RFO       ACCESS:          0  HIT:          0  MISS:          0
cpu0_ITLB PREFETCH  ACCESS:          0  HIT:          0  MISS:          0
cpu0_ITLB WRITEBACK ACCESS:          0  HIT:          0  MISS:          0
cpu0_ITLB TRANSLATION ACCESS:          0  HIT:          0  MISS:          0
cpu0_ITLB PREFETCH  REQUESTED:          0  ISSUED:          0  USEFUL:          0  USELESS:          0
cpu0_ITLB AVERAGE MISS LATENCY: -nan cycles
cpu0_L1I TOTAL     ACCESS:      41182  HIT:      41181  MISS:          1
cpu0_L1I LOAD      ACCESS:      41182  HIT:      41181  MISS:          1
cpu0_L1I RFO       ACCESS:          0  HIT:          0  MISS:          0
cpu0_L1I PREFETCH  ACCESS:          0  HIT:          0  MISS:          0
cpu0_L1I WRITEBACK ACCESS:          0  HIT:          0  MISS:          0
cpu0_L1I TRANSLATION ACCESS:          0  HIT:          0  MISS:          0
cpu0_L1I PREFETCH  REQUESTED:          0  ISSUED:          0  USEFUL:          0  USELESS:          0
cpu0_L1I AVERAGE MISS LATENCY: 195 cycles
cpu0_STLB TOTAL     ACCESS:     456230  HIT:     455837  MISS:        393
cpu0_STLB LOAD      ACCESS:     314939  HIT:     314798  MISS:        141
cpu0_STLB RFO       ACCESS:     141291  HIT:     141039  MISS:        252
cpu0_STLB PREFETCH  ACCESS:          0  HIT:          0  MISS:          0
cpu0_STLB WRITEBACK ACCESS:          0  HIT:          0  MISS:          0
cpu0_STLB TRANSLATION ACCESS:          0  HIT:          0  MISS:          0
cpu0_STLB PREFETCH  REQUESTED:          0  ISSUED:          0  USEFUL:          0  USELESS:          0
cpu0_STLB AVERAGE MISS LATENCY: 220.183 cycles
cpu0_L1D TOTAL     ACCESS:   20754311  HIT:   19345566  MISS:    1408745
cpu0_L1D LOAD      ACCESS:   14097524  HIT:   13042168  MISS:    1055356
cpu0_L1D RFO       ACCESS:    6656416  HIT:    6303222  MISS:     353194
cpu0_L1D PREFETCH  ACCESS:          0  HIT:          0  MISS:          0
cpu0_L1D WRITEBACK ACCESS:          0  HIT:          0  MISS:          0
cpu0_L1D TRANSLATION ACCESS:        371  HIT:        176  MISS:        195
cpu0_L1D PREFETCH  REQUESTED:          0  ISSUED:          0  USEFUL:          0  USELESS:          0
cpu0_L1D AVERAGE MISS LATENCY: 75.8348 cycles
cpu0_L2C TOTAL     ACCESS:    1810955  HIT:    1197712  MISS:     613243
cpu0_L2C LOAD      ACCESS:    1055339  HIT:     692829  MISS:     362510
cpu0_L2C RFO       ACCESS:     353153  HIT:     102523  MISS:     250630
cpu0_L2C PREFETCH  ACCESS:          0  HIT:          0  MISS:          0
cpu0_L2C WRITEBACK ACCESS:     402268  HIT:     402196  MISS:         72
cpu0_L2C TRANSLATION ACCESS:        195  HIT:        164  MISS:         31
cpu0_L2C PREFETCH  REQUESTED:          0  ISSUED:          0  USEFUL:          0  USELESS:          0
cpu0_L2C AVERAGE MISS LATENCY: 148.803 cycles
LLC TOTAL     ACCESS:     901946  HIT:     765268  MISS:     136678
LLC LOAD      ACCESS:     362509  HIT:     296731  MISS:      65778
LLC RFO       ACCESS:     250602  HIT:     189825  MISS:      60777
LLC PREFETCH  ACCESS:          0  HIT:          0  MISS:          0
LLC WRITEBACK ACCESS:     288804  HIT:     278699  MISS:      10105
LLC TRANSLATION ACCESS:         31  HIT:         13  MISS:         18
LLC PREFETCH  REQUESTED:          0  ISSUED:          0  USEFUL:          0  USELESS:          0
LLC AVERAGE MISS LATENCY: 573.414 cycles
OPTgen accesses: 10425
OPTgen hits: 8565
OPTgen hit rate: 82.1583



DRAM Statistics
 CHANNEL 0
 RQ ROW_BUFFER_HIT:       8942  ROW_BUFFER_MISS:     116996
 DBUS AVG_CONGESTED_CYCLE:    3.97107
 WQ ROW_BUFFER_HIT:       7168  ROW_BUFFER_MISS:      77379  FULL:          0


CPU 0 Branch Prediction Accuracy: 89.4501% MPKI: 18.6246 Average ROB Occupancy at Mispredict: 32.4505
Branch type MPKI
BRANCH_DIRECT_JUMP: 3e-05
BRANCH_INDIRECT: 0
BRANCH_CONDITIONAL: 18.6246
BRANCH_DIRECT_CALL: 0
BRANCH_INDIRECT_CALL: 0
BRANCH_RETURN: 0

