
*** ChampSim Multicore Out-of-Order Simulator ***

Warmup Instructions: 10000000
Simulation Instructions: 100000000
Number of CPUs: 1
Off-chip DRAM Size: 4 GiB Channels: 1 Width: 64-bit Data Rate: 3200 MT/s

VirtualMemory physical capacity: 8588881920 num_ppages: 2096895
VirtualMemory page size: 4096 log2_page_size: 12

CPU 0 runs /datasets/cs240c-wi22-a00-public/data/Assignment2/leslie3d_1116B.trace.xz
CPU 0 Bimodal branch predictor
Basic BTB sets: 1024 ways: 8 indirect buffer size: 4096 RAS size: 64
Initialize Hawkeye state
Heartbeat CPU 0 instructions: 10000000 cycles: 3692424 heartbeat IPC: 2.70825 cumulative IPC: 2.70825 (Simulation time: 0 hr 0 min 58 sec) 

Warmup complete CPU 0 instructions: 10000005 cycles: 3692425 (Simulation time: 0 hr 0 min 58 sec) 

Heartbeat CPU 0 instructions: 20000000 cycles: 12733893 heartbeat IPC: 1.10601 cumulative IPC: 1.10601 (Simulation time: 0 hr 2 min 38 sec) 
Heartbeat CPU 0 instructions: 30000004 cycles: 21807850 heartbeat IPC: 1.10206 cumulative IPC: 1.10403 (Simulation time: 0 hr 4 min 18 sec) 
Heartbeat CPU 0 instructions: 40000003 cycles: 33590564 heartbeat IPC: 0.848701 cumulative IPC: 1.00341 (Simulation time: 0 hr 6 min 10 sec) 
Heartbeat CPU 0 instructions: 50000000 cycles: 55247853 heartbeat IPC: 0.461738 cumulative IPC: 0.775864 (Simulation time: 0 hr 8 min 52 sec) 
Heartbeat CPU 0 instructions: 60000001 cycles: 109688230 heartbeat IPC: 0.183687 cumulative IPC: 0.471717 (Simulation time: 0 hr 14 min 19 sec) 
Heartbeat CPU 0 instructions: 70000000 cycles: 123910330 heartbeat IPC: 0.703131 cumulative IPC: 0.499094 (Simulation time: 0 hr 16 min 28 sec) 
Heartbeat CPU 0 instructions: 80000001 cycles: 136883547 heartbeat IPC: 0.770819 cumulative IPC: 0.52556 (Simulation time: 0 hr 18 min 27 sec) 
Heartbeat CPU 0 instructions: 90000004 cycles: 150180822 heartbeat IPC: 0.752034 cumulative IPC: 0.546118 (Simulation time: 0 hr 20 min 34 sec) 
Heartbeat CPU 0 instructions: 100000002 cycles: 163353984 heartbeat IPC: 0.759119 cumulative IPC: 0.563692 (Simulation time: 0 hr 22 min 41 sec) 
Heartbeat CPU 0 instructions: 110000001 cycles: 180701397 heartbeat IPC: 0.576455 cumulative IPC: 0.564943 (Simulation time: 0 hr 25 min 1 sec) 
Finished CPU 0 instructions: 100000001 cycles: 177008973 cumulative IPC: 0.564943 (Simulation time: 0 hr 25 min 1 sec) 

ChampSim completed all CPUs

Region of Interest Statistics

CPU 0 cumulative IPC: 0.564943 instructions: 100000001 cycles: 177008973
cpu0_DTLB TOTAL     ACCESS:   25740366  HIT:   25674604  MISS:      65762
cpu0_DTLB LOAD      ACCESS:   21120961  HIT:   21069257  MISS:      51704
cpu0_DTLB RFO       ACCESS:    4619405  HIT:    4605347  MISS:      14058
cpu0_DTLB PREFETCH  ACCESS:          0  HIT:          0  MISS:          0
cpu0_DTLB WRITEBACK ACCESS:          0  HIT:          0  MISS:          0
cpu0_DTLB TRANSLATION ACCESS:          0  HIT:          0  MISS:          0
cpu0_DTLB PREFETCH  REQUESTED:          0  ISSUED:          0  USEFUL:          0  USELESS:          0
cpu0_DTLB AVERAGE MISS LATENCY: 86.1577 cycles
cpu0_ITLB TOTAL     ACCESS:    2866523  HIT:    2866505  MISS:         18
cpu0_ITLB LOAD      ACCESS:    2866523  HIT:    2866505  MISS:         18
cpu0_ITLB RFO       ACCESS:          0  HIT:          0  MISS:          0
cpu0_ITLB PREFETCH  ACCESS:          0  HIT:          0  MISS:          0
cpu0_ITLB WRITEBACK ACCESS:          0  HIT:          0  MISS:          0
cpu0_ITLB TRANSLATION ACCESS:          0  HIT:          0  MISS:          0
cpu0_ITLB PREFETCH  REQUESTED:          0  ISSUED:          0  USEFUL:          0  USELESS:          0
cpu0_ITLB AVERAGE MISS LATENCY: 279.778 cycles
cpu0_L1I TOTAL     ACCESS:    1777504  HIT:    1777032  MISS:        472
cpu0_L1I LOAD      ACCESS:    1777504  HIT:    1777032  MISS:        472
cpu0_L1I RFO       ACCESS:          0  HIT:          0  MISS:          0
cpu0_L1I PREFETCH  ACCESS:          0  HIT:          0  MISS:          0
cpu0_L1I WRITEBACK ACCESS:          0  HIT:          0  MISS:          0
cpu0_L1I TRANSLATION ACCESS:          0  HIT:          0  MISS:          0
cpu0_L1I PREFETCH  REQUESTED:          0  ISSUED:          0  USEFUL:          0  USELESS:          0
cpu0_L1I AVERAGE MISS LATENCY: 373.398 cycles
cpu0_STLB TOTAL     ACCESS:      65780  HIT:      34156  MISS:      31624
cpu0_STLB LOAD      ACCESS:      51722  HIT:      28256  MISS:      23466
cpu0_STLB RFO       ACCESS:      14058  HIT:       5900  MISS:       8158
cpu0_STLB PREFETCH  ACCESS:          0  HIT:          0  MISS:          0
cpu0_STLB WRITEBACK ACCESS:          0  HIT:          0  MISS:          0
cpu0_STLB TRANSLATION ACCESS:          0  HIT:          0  MISS:          0
cpu0_STLB PREFETCH  REQUESTED:          0  ISSUED:          0  USEFUL:          0  USELESS:          0
cpu0_STLB AVERAGE MISS LATENCY: 160.59 cycles
cpu0_L1D TOTAL     ACCESS:   24537746  HIT:   21127566  MISS:    3410180
cpu0_L1D LOAD      ACCESS:   16385528  HIT:   13768371  MISS:    2617157
cpu0_L1D RFO       ACCESS:    8122903  HIT:    7333519  MISS:     789384
cpu0_L1D PREFETCH  ACCESS:          0  HIT:          0  MISS:          0
cpu0_L1D WRITEBACK ACCESS:          0  HIT:          0  MISS:          0
cpu0_L1D TRANSLATION ACCESS:      29315  HIT:      25676  MISS:       3639
cpu0_L1D PREFETCH  REQUESTED:          0  ISSUED:          0  USEFUL:          0  USELESS:          0
cpu0_L1D AVERAGE MISS LATENCY: 483.194 cycles
cpu0_L2C TOTAL     ACCESS:    4455070  HIT:    1718507  MISS:    2736563
cpu0_L2C LOAD      ACCESS:    2617583  HIT:     507775  MISS:    2109808
cpu0_L2C RFO       ACCESS:     789296  HIT:     162812  MISS:     626484
cpu0_L2C PREFETCH  ACCESS:          0  HIT:          0  MISS:          0
cpu0_L2C WRITEBACK ACCESS:    1044552  HIT:    1044379  MISS:        173
cpu0_L2C TRANSLATION ACCESS:       3639  HIT:       3541  MISS:         98
cpu0_L2C PREFETCH  REQUESTED:          0  ISSUED:          0  USEFUL:          0  USELESS:          0
cpu0_L2C AVERAGE MISS LATENCY: 588.459 cycles
LLC TOTAL     ACCESS:    3497105  HIT:     792228  MISS:    2704877
LLC LOAD      ACCESS:    2109808  HIT:     482148  MISS:    1627660
LLC RFO       ACCESS:     626484  HIT:     106708  MISS:     519776
LLC PREFETCH  ACCESS:          0  HIT:          0  MISS:          0
LLC WRITEBACK ACCESS:     760715  HIT:     203353  MISS:     557362
LLC TRANSLATION ACCESS:         98  HIT:         19  MISS:         79
LLC PREFETCH  REQUESTED:          0  ISSUED:          0  USEFUL:          0  USELESS:          0
LLC AVERAGE MISS LATENCY: 574.04 cycles
OPTgen accesses: 45255
OPTgen hits: 12450
OPTgen hit rate: 27.5108



DRAM Statistics
 CHANNEL 0
 RQ ROW_BUFFER_HIT:     216499  ROW_BUFFER_MISS:    1930502
 DBUS AVG_CONGESTED_CYCLE:    3.95972
 WQ ROW_BUFFER_HIT:      62217  ROW_BUFFER_MISS:     605676  FULL:      34550


CPU 0 Branch Prediction Accuracy: 96.8713% MPKI: 1.55303 Average ROB Occupancy at Mispredict: 298.017
Branch type MPKI
BRANCH_DIRECT_JUMP: 0.00018
BRANCH_INDIRECT: 0
BRANCH_CONDITIONAL: 1.55065
BRANCH_DIRECT_CALL: 0.00113
BRANCH_INDIRECT_CALL: 0
BRANCH_RETURN: 0.00107

