
*** ChampSim Multicore Out-of-Order Simulator ***

Warmup Instructions: 10000000
Simulation Instructions: 100000000
Number of CPUs: 1
Off-chip DRAM Size: 4 GiB Channels: 1 Width: 64-bit Data Rate: 3200 MT/s

VirtualMemory physical capacity: 8588881920 num_ppages: 2096895
VirtualMemory page size: 4096 log2_page_size: 12

CPU 0 runs /datasets/cs240c-wi22-a00-public/data/Assignment2/astar_23B.trace.xz
CPU 0 Bimodal branch predictor
Basic BTB sets: 1024 ways: 8 indirect buffer size: 4096 RAS size: 64
Initialize Hawkeye state
Heartbeat CPU 0 instructions: 10000002 cycles: 2670768 heartbeat IPC: 3.74424 cumulative IPC: 3.74424 (Simulation time: 0 hr 0 min 34 sec) 

Warmup complete CPU 0 instructions: 10000002 cycles: 2670768 (Simulation time: 0 hr 0 min 34 sec) 

Heartbeat CPU 0 instructions: 20000003 cycles: 25559643 heartbeat IPC: 0.436894 cumulative IPC: 0.436894 (Simulation time: 0 hr 1 min 17 sec) 
Heartbeat CPU 0 instructions: 30000000 cycles: 49836159 heartbeat IPC: 0.411921 cumulative IPC: 0.42404 (Simulation time: 0 hr 2 min 2 sec) 
Heartbeat CPU 0 instructions: 40000002 cycles: 74292986 heartbeat IPC: 0.408884 cumulative IPC: 0.418864 (Simulation time: 0 hr 2 min 47 sec) 
Heartbeat CPU 0 instructions: 50000002 cycles: 98507063 heartbeat IPC: 0.412983 cumulative IPC: 0.417378 (Simulation time: 0 hr 3 min 32 sec) 
Heartbeat CPU 0 instructions: 60000000 cycles: 123128027 heartbeat IPC: 0.406158 cumulative IPC: 0.415085 (Simulation time: 0 hr 4 min 17 sec) 
Heartbeat CPU 0 instructions: 70000000 cycles: 146242930 heartbeat IPC: 0.432621 cumulative IPC: 0.417908 (Simulation time: 0 hr 5 min 1 sec) 
Heartbeat CPU 0 instructions: 80000000 cycles: 170737483 heartbeat IPC: 0.408254 cumulative IPC: 0.416501 (Simulation time: 0 hr 5 min 47 sec) 
Heartbeat CPU 0 instructions: 90000004 cycles: 195714791 heartbeat IPC: 0.400364 cumulative IPC: 0.414413 (Simulation time: 0 hr 6 min 32 sec) 
Heartbeat CPU 0 instructions: 100000002 cycles: 219174243 heartbeat IPC: 0.426267 cumulative IPC: 0.415698 (Simulation time: 0 hr 7 min 15 sec) 
Heartbeat CPU 0 instructions: 110000003 cycles: 243310277 heartbeat IPC: 0.414318 cumulative IPC: 0.415559 (Simulation time: 0 hr 8 min 0 sec) 
Finished CPU 0 instructions: 100000001 cycles: 240639509 cumulative IPC: 0.415559 (Simulation time: 0 hr 8 min 0 sec) 

ChampSim completed all CPUs

Region of Interest Statistics

CPU 0 cumulative IPC: 0.415559 instructions: 100000001 cycles: 240639509
cpu0_DTLB TOTAL     ACCESS:   24054193  HIT:   21626347  MISS:    2427846
cpu0_DTLB LOAD      ACCESS:   21285520  HIT:   19103585  MISS:    2181935
cpu0_DTLB RFO       ACCESS:    2768673  HIT:    2522762  MISS:     245911
cpu0_DTLB PREFETCH  ACCESS:          0  HIT:          0  MISS:          0
cpu0_DTLB WRITEBACK ACCESS:          0  HIT:          0  MISS:          0
cpu0_DTLB TRANSLATION ACCESS:          0  HIT:          0  MISS:          0
cpu0_DTLB PREFETCH  REQUESTED:          0  ISSUED:          0  USEFUL:          0  USELESS:          0
cpu0_DTLB AVERAGE MISS LATENCY: 10.5703 cycles
cpu0_ITLB TOTAL     ACCESS:   12810400  HIT:   12810390  MISS:         10
cpu0_ITLB LOAD      ACCESS:   12810400  HIT:   12810390  MISS:         10
cpu0_ITLB RFO       ACCESS:          0  HIT:          0  MISS:          0
cpu0_ITLB PREFETCH  ACCESS:          0  HIT:          0  MISS:          0
cpu0_ITLB WRITEBACK ACCESS:          0  HIT:          0  MISS:          0
cpu0_ITLB TRANSLATION ACCESS:          0  HIT:          0  MISS:          0
cpu0_ITLB PREFETCH  REQUESTED:          0  ISSUED:          0  USEFUL:          0  USELESS:          0
cpu0_ITLB AVERAGE MISS LATENCY: 239.6 cycles
cpu0_L1I TOTAL     ACCESS:       4972  HIT:       4871  MISS:        101
cpu0_L1I LOAD      ACCESS:       4972  HIT:       4871  MISS:        101
cpu0_L1I RFO       ACCESS:          0  HIT:          0  MISS:          0
cpu0_L1I PREFETCH  ACCESS:          0  HIT:          0  MISS:          0
cpu0_L1I WRITEBACK ACCESS:          0  HIT:          0  MISS:          0
cpu0_L1I TRANSLATION ACCESS:          0  HIT:          0  MISS:          0
cpu0_L1I PREFETCH  REQUESTED:          0  ISSUED:          0  USEFUL:          0  USELESS:          0
cpu0_L1I AVERAGE MISS LATENCY: 212.337 cycles
cpu0_STLB TOTAL     ACCESS:    2427856  HIT:    2026646  MISS:     401210
cpu0_STLB LOAD      ACCESS:    2181945  HIT:    1847058  MISS:     334887
cpu0_STLB RFO       ACCESS:     245911  HIT:     179588  MISS:      66323
cpu0_STLB PREFETCH  ACCESS:          0  HIT:          0  MISS:          0
cpu0_STLB WRITEBACK ACCESS:          0  HIT:          0  MISS:          0
cpu0_STLB TRANSLATION ACCESS:          0  HIT:          0  MISS:          0
cpu0_STLB PREFETCH  REQUESTED:          0  ISSUED:          0  USEFUL:          0  USELESS:          0
cpu0_STLB AVERAGE MISS LATENCY: 9.4426 cycles
cpu0_L1D TOTAL     ACCESS:   26431704  HIT:   23507212  MISS:    2924492
cpu0_L1D LOAD      ACCESS:   21757760  HIT:   18872334  MISS:    2885426
cpu0_L1D RFO       ACCESS:    4287418  HIT:    4250335  MISS:      37083
cpu0_L1D PREFETCH  ACCESS:          0  HIT:          0  MISS:          0
cpu0_L1D WRITEBACK ACCESS:          0  HIT:          0  MISS:          0
cpu0_L1D TRANSLATION ACCESS:     386526  HIT:     384543  MISS:       1983
cpu0_L1D PREFETCH  REQUESTED:          0  ISSUED:          0  USEFUL:          0  USELESS:          0
cpu0_L1D AVERAGE MISS LATENCY: 33.81 cycles
cpu0_L2C TOTAL     ACCESS:    3881066  HIT:    2756699  MISS:    1124367
cpu0_L2C LOAD      ACCESS:    2885456  HIT:    1767328  MISS:    1118128
cpu0_L2C RFO       ACCESS:      37083  HIT:      31088  MISS:       5995
cpu0_L2C PREFETCH  ACCESS:          0  HIT:          0  MISS:          0
cpu0_L2C WRITEBACK ACCESS:     956544  HIT:     956488  MISS:         56
cpu0_L2C TRANSLATION ACCESS:       1983  HIT:       1795  MISS:        188
cpu0_L2C PREFETCH  REQUESTED:          0  ISSUED:          0  USEFUL:          0  USELESS:          0
cpu0_L2C AVERAGE MISS LATENCY: 59.2942 cycles
LLC TOTAL     ACCESS:    1532662  HIT:    1238077  MISS:     294585
LLC LOAD      ACCESS:    1117972  HIT:     869494  MISS:     248478
LLC RFO       ACCESS:       5995  HIT:       5677  MISS:        318
LLC PREFETCH  ACCESS:          0  HIT:          0  MISS:          0
LLC WRITEBACK ACCESS:     408507  HIT:     362728  MISS:      45779
LLC TRANSLATION ACCESS:        188  HIT:        178  MISS:         10
LLC PREFETCH  REQUESTED:          0  ISSUED:          0  USEFUL:          0  USELESS:          0
LLC AVERAGE MISS LATENCY: 146.175 cycles
OPTgen accesses: 18808
OPTgen hits: 14562
OPTgen hit rate: 77.4245



DRAM Statistics
 CHANNEL 0
 RQ ROW_BUFFER_HIT:        838  ROW_BUFFER_MISS:     247542
 DBUS AVG_CONGESTED_CYCLE:    3.57549
 WQ ROW_BUFFER_HIT:       7168  ROW_BUFFER_MISS:     138331  FULL:          0


CPU 0 Branch Prediction Accuracy: 69.3175% MPKI: 58.5794 Average ROB Occupancy at Mispredict: 5.13457
Branch type MPKI
BRANCH_DIRECT_JUMP: 0.00025
BRANCH_INDIRECT: 0
BRANCH_CONDITIONAL: 58.5789
BRANCH_DIRECT_CALL: 0.00016
BRANCH_INDIRECT_CALL: 0
BRANCH_RETURN: 0.00016

