
*** ChampSim Multicore Out-of-Order Simulator ***

Warmup Instructions: 10000000
Simulation Instructions: 100000000
Number of CPUs: 1
Off-chip DRAM Size: 4 GiB Channels: 1 Width: 64-bit Data Rate: 3200 MT/s

VirtualMemory physical capacity: 8588881920 num_ppages: 2096895
VirtualMemory page size: 4096 log2_page_size: 12

CPU 0 runs /datasets/cs240c-wi22-a00-public/data/Assignment2/bzip2_259B.trace.xz
CPU 0 Bimodal branch predictor
Basic BTB sets: 1024 ways: 8 indirect buffer size: 4096 RAS size: 64
Initialize Hawkeye state
Heartbeat CPU 0 instructions: 10000002 cycles: 2535454 heartbeat IPC: 3.94407 cumulative IPC: 3.94407 (Simulation time: 0 hr 0 min 26 sec) 

Warmup complete CPU 0 instructions: 10000002 cycles: 2535454 (Simulation time: 0 hr 0 min 26 sec) 

Heartbeat CPU 0 instructions: 20000003 cycles: 9061051 heartbeat IPC: 1.53243 cumulative IPC: 1.53243 (Simulation time: 0 hr 1 min 26 sec) 
Heartbeat CPU 0 instructions: 30000002 cycles: 14623153 heartbeat IPC: 1.79788 cumulative IPC: 1.65457 (Simulation time: 0 hr 2 min 19 sec) 
Heartbeat CPU 0 instructions: 40000003 cycles: 21399928 heartbeat IPC: 1.47563 cumulative IPC: 1.59029 (Simulation time: 0 hr 3 min 2 sec) 
Heartbeat CPU 0 instructions: 50000003 cycles: 29604160 heartbeat IPC: 1.21888 cumulative IPC: 1.47772 (Simulation time: 0 hr 3 min 33 sec) 
Heartbeat CPU 0 instructions: 60000001 cycles: 37471204 heartbeat IPC: 1.27113 cumulative IPC: 1.4312 (Simulation time: 0 hr 4 min 3 sec) 
Heartbeat CPU 0 instructions: 70000004 cycles: 43935613 heartbeat IPC: 1.54693 cumulative IPC: 1.44927 (Simulation time: 0 hr 5 min 0 sec) 
Heartbeat CPU 0 instructions: 80000004 cycles: 50806053 heartbeat IPC: 1.45551 cumulative IPC: 1.45016 (Simulation time: 0 hr 5 min 59 sec) 
Heartbeat CPU 0 instructions: 90000001 cycles: 57148842 heartbeat IPC: 1.57659 cumulative IPC: 1.46484 (Simulation time: 0 hr 6 min 46 sec) 
Heartbeat CPU 0 instructions: 100000000 cycles: 65545291 heartbeat IPC: 1.19098 cumulative IPC: 1.42835 (Simulation time: 0 hr 7 min 16 sec) 
Heartbeat CPU 0 instructions: 110000000 cycles: 73519708 heartbeat IPC: 1.25401 cumulative IPC: 1.40876 (Simulation time: 0 hr 7 min 45 sec) 
Finished CPU 0 instructions: 100000003 cycles: 70984259 cumulative IPC: 1.40876 (Simulation time: 0 hr 7 min 45 sec) 

ChampSim completed all CPUs

Region of Interest Statistics

CPU 0 cumulative IPC: 1.40876 instructions: 100000003 cycles: 70984259
cpu0_DTLB TOTAL     ACCESS:   18628549  HIT:   17967837  MISS:     660712
cpu0_DTLB LOAD      ACCESS:    9570978  HIT:    8914199  MISS:     656779
cpu0_DTLB RFO       ACCESS:    9057571  HIT:    9053638  MISS:       3933
cpu0_DTLB PREFETCH  ACCESS:          0  HIT:          0  MISS:          0
cpu0_DTLB WRITEBACK ACCESS:          0  HIT:          0  MISS:          0
cpu0_DTLB TRANSLATION ACCESS:          0  HIT:          0  MISS:          0
cpu0_DTLB PREFETCH  REQUESTED:          0  ISSUED:          0  USEFUL:          0  USELESS:          0
cpu0_DTLB AVERAGE MISS LATENCY: 9.2634 cycles
cpu0_ITLB TOTAL     ACCESS:    6779124  HIT:    6779121  MISS:          3
cpu0_ITLB LOAD      ACCESS:    6779124  HIT:    6779121  MISS:          3
cpu0_ITLB RFO       ACCESS:          0  HIT:          0  MISS:          0
cpu0_ITLB PREFETCH  ACCESS:          0  HIT:          0  MISS:          0
cpu0_ITLB WRITEBACK ACCESS:          0  HIT:          0  MISS:          0
cpu0_ITLB TRANSLATION ACCESS:          0  HIT:          0  MISS:          0
cpu0_ITLB PREFETCH  REQUESTED:          0  ISSUED:          0  USEFUL:          0  USELESS:          0
cpu0_ITLB AVERAGE MISS LATENCY: 395.333 cycles
cpu0_L1I TOTAL     ACCESS:      58673  HIT:      58534  MISS:        139
cpu0_L1I LOAD      ACCESS:      58673  HIT:      58534  MISS:        139
cpu0_L1I RFO       ACCESS:          0  HIT:          0  MISS:          0
cpu0_L1I PREFETCH  ACCESS:          0  HIT:          0  MISS:          0
cpu0_L1I WRITEBACK ACCESS:          0  HIT:          0  MISS:          0
cpu0_L1I TRANSLATION ACCESS:          0  HIT:          0  MISS:          0
cpu0_L1I PREFETCH  REQUESTED:          0  ISSUED:          0  USEFUL:          0  USELESS:          0
cpu0_L1I AVERAGE MISS LATENCY: 205.432 cycles
cpu0_STLB TOTAL     ACCESS:     660715  HIT:     659895  MISS:        820
cpu0_STLB LOAD      ACCESS:     656782  HIT:     656512  MISS:        270
cpu0_STLB RFO       ACCESS:       3933  HIT:       3383  MISS:        550
cpu0_STLB PREFETCH  ACCESS:          0  HIT:          0  MISS:          0
cpu0_STLB WRITEBACK ACCESS:          0  HIT:          0  MISS:          0
cpu0_STLB TRANSLATION ACCESS:          0  HIT:          0  MISS:          0
cpu0_STLB PREFETCH  REQUESTED:          0  ISSUED:          0  USEFUL:          0  USELESS:          0
cpu0_STLB AVERAGE MISS LATENCY: 213.576 cycles
cpu0_L1D TOTAL     ACCESS:   20315303  HIT:   19309749  MISS:    1005554
cpu0_L1D LOAD      ACCESS:   10363561  HIT:    9477200  MISS:     886361
cpu0_L1D RFO       ACCESS:    9950925  HIT:    9832051  MISS:     118874
cpu0_L1D PREFETCH  ACCESS:          0  HIT:          0  MISS:          0
cpu0_L1D WRITEBACK ACCESS:          0  HIT:          0  MISS:          0
cpu0_L1D TRANSLATION ACCESS:        817  HIT:        498  MISS:        319
cpu0_L1D PREFETCH  REQUESTED:          0  ISSUED:          0  USEFUL:          0  USELESS:          0
cpu0_L1D AVERAGE MISS LATENCY: 87.6801 cycles
cpu0_L2C TOTAL     ACCESS:    1222683  HIT:     525061  MISS:     697622
cpu0_L2C LOAD      ACCESS:     886497  HIT:     288902  MISS:     597595
cpu0_L2C RFO       ACCESS:     118873  HIT:      18900  MISS:      99973
cpu0_L2C PREFETCH  ACCESS:          0  HIT:          0  MISS:          0
cpu0_L2C WRITEBACK ACCESS:     216994  HIT:     216958  MISS:         36
cpu0_L2C TRANSLATION ACCESS:        319  HIT:        301  MISS:         18
cpu0_L2C PREFETCH  REQUESTED:          0  ISSUED:          0  USEFUL:          0  USELESS:          0
cpu0_L2C AVERAGE MISS LATENCY: 110.561 cycles
LLC TOTAL     ACCESS:     886586  HIT:     587534  MISS:     299052
LLC LOAD      ACCESS:     597595  HIT:     397359  MISS:     200236
LLC RFO       ACCESS:      99973  HIT:      49249  MISS:      50724
LLC PREFETCH  ACCESS:          0  HIT:          0  MISS:          0
LLC WRITEBACK ACCESS:     189000  HIT:     140925  MISS:      48075
LLC TRANSLATION ACCESS:         18  HIT:          1  MISS:         17
LLC PREFETCH  REQUESTED:          0  ISSUED:          0  USEFUL:          0  USELESS:          0
LLC AVERAGE MISS LATENCY: 208.925 cycles
OPTgen accesses: 11231
OPTgen hits: 8451
OPTgen hit rate: 75.2471



DRAM Statistics
 CHANNEL 0
 RQ ROW_BUFFER_HIT:      27488  ROW_BUFFER_MISS:     223271
 DBUS AVG_CONGESTED_CYCLE:    3.95715
 WQ ROW_BUFFER_HIT:      16699  ROW_BUFFER_MISS:     123697  FULL:       2348


CPU 0 Branch Prediction Accuracy: 93.3658% MPKI: 11.2167 Average ROB Occupancy at Mispredict: 31.7267
Branch type MPKI
BRANCH_DIRECT_JUMP: 0.0006
BRANCH_INDIRECT: 0.01713
BRANCH_CONDITIONAL: 11.1989
BRANCH_DIRECT_CALL: 5e-05
BRANCH_INDIRECT_CALL: 0
BRANCH_RETURN: 6e-05

