
*** ChampSim Multicore Out-of-Order Simulator ***

Warmup Instructions: 10000000
Simulation Instructions: 100000000
Number of CPUs: 1
Off-chip DRAM Size: 4 GiB Channels: 1 Width: 64-bit Data Rate: 3200 MT/s

VirtualMemory physical capacity: 8588881920 num_ppages: 2096895
VirtualMemory page size: 4096 log2_page_size: 12

CPU 0 runs /datasets/cs240c-wi22-a00-public/data/Assignment2/gcc_13B.trace.xz
CPU 0 Bimodal branch predictor
Basic BTB sets: 1024 ways: 8 indirect buffer size: 4096 RAS size: 64
Initialize Hawkeye state
Heartbeat CPU 0 instructions: 10000003 cycles: 2971511 heartbeat IPC: 3.36529 cumulative IPC: 3.36529 (Simulation time: 0 hr 0 min 47 sec) 

Warmup complete CPU 0 instructions: 10000003 cycles: 2971511 (Simulation time: 0 hr 0 min 47 sec) 

Heartbeat CPU 0 instructions: 20000003 cycles: 52540117 heartbeat IPC: 0.201741 cumulative IPC: 0.201741 (Simulation time: 0 hr 3 min 0 sec) 
Heartbeat CPU 0 instructions: 30000002 cycles: 106741862 heartbeat IPC: 0.184496 cumulative IPC: 0.192733 (Simulation time: 0 hr 5 min 22 sec) 
Heartbeat CPU 0 instructions: 40000004 cycles: 143293451 heartbeat IPC: 0.273586 cumulative IPC: 0.213794 (Simulation time: 0 hr 7 min 23 sec) 
Heartbeat CPU 0 instructions: 50000002 cycles: 161491179 heartbeat IPC: 0.549519 cumulative IPC: 0.252335 (Simulation time: 0 hr 8 min 10 sec) 
Heartbeat CPU 0 instructions: 60000003 cycles: 179463863 heartbeat IPC: 0.5564 cumulative IPC: 0.283298 (Simulation time: 0 hr 8 min 58 sec) 
Heartbeat CPU 0 instructions: 70000000 cycles: 197119393 heartbeat IPC: 0.566395 cumulative IPC: 0.309043 (Simulation time: 0 hr 9 min 45 sec) 
Heartbeat CPU 0 instructions: 80000002 cycles: 213954051 heartbeat IPC: 0.594013 cumulative IPC: 0.331781 (Simulation time: 0 hr 10 min 29 sec) 
Heartbeat CPU 0 instructions: 90000000 cycles: 232086132 heartbeat IPC: 0.551509 cumulative IPC: 0.34917 (Simulation time: 0 hr 11 min 16 sec) 
Heartbeat CPU 0 instructions: 100000000 cycles: 249884838 heartbeat IPC: 0.561839 cumulative IPC: 0.3645 (Simulation time: 0 hr 12 min 2 sec) 
Heartbeat CPU 0 instructions: 110000002 cycles: 274240198 heartbeat IPC: 0.410587 cumulative IPC: 0.368638 (Simulation time: 0 hr 12 min 59 sec) 
Finished CPU 0 instructions: 100000004 cycles: 271268688 cumulative IPC: 0.368638 (Simulation time: 0 hr 12 min 59 sec) 

ChampSim completed all CPUs

Region of Interest Statistics

CPU 0 cumulative IPC: 0.368638 instructions: 100000004 cycles: 271268688
cpu0_DTLB TOTAL     ACCESS:   19457390  HIT:   19355203  MISS:     102187
cpu0_DTLB LOAD      ACCESS:   14021153  HIT:   13934072  MISS:      87081
cpu0_DTLB RFO       ACCESS:    5436237  HIT:    5421131  MISS:      15106
cpu0_DTLB PREFETCH  ACCESS:          0  HIT:          0  MISS:          0
cpu0_DTLB WRITEBACK ACCESS:          0  HIT:          0  MISS:          0
cpu0_DTLB TRANSLATION ACCESS:          0  HIT:          0  MISS:          0
cpu0_DTLB PREFETCH  REQUESTED:          0  ISSUED:          0  USEFUL:          0  USELESS:          0
cpu0_DTLB AVERAGE MISS LATENCY: 28.4003 cycles
cpu0_ITLB TOTAL     ACCESS:   10353624  HIT:   10353563  MISS:         61
cpu0_ITLB LOAD      ACCESS:   10353624  HIT:   10353563  MISS:         61
cpu0_ITLB RFO       ACCESS:          0  HIT:          0  MISS:          0
cpu0_ITLB PREFETCH  ACCESS:          0  HIT:          0  MISS:          0
cpu0_ITLB WRITEBACK ACCESS:          0  HIT:          0  MISS:          0
cpu0_ITLB TRANSLATION ACCESS:          0  HIT:          0  MISS:          0
cpu0_ITLB PREFETCH  REQUESTED:          0  ISSUED:          0  USEFUL:          0  USELESS:          0
cpu0_ITLB AVERAGE MISS LATENCY: 143.852 cycles
cpu0_L1I TOTAL     ACCESS:    6565301  HIT:    6564929  MISS:        372
cpu0_L1I LOAD      ACCESS:    6565301  HIT:    6564929  MISS:        372
cpu0_L1I RFO       ACCESS:          0  HIT:          0  MISS:          0
cpu0_L1I PREFETCH  ACCESS:          0  HIT:          0  MISS:          0
cpu0_L1I WRITEBACK ACCESS:          0  HIT:          0  MISS:          0
cpu0_L1I TRANSLATION ACCESS:          0  HIT:          0  MISS:          0
cpu0_L1I PREFETCH  REQUESTED:          0  ISSUED:          0  USEFUL:          0  USELESS:          0
cpu0_L1I AVERAGE MISS LATENCY: 172.565 cycles
cpu0_STLB TOTAL     ACCESS:     102248  HIT:      33348  MISS:      68900
cpu0_STLB LOAD      ACCESS:      87142  HIT:      30285  MISS:      56857
cpu0_STLB RFO       ACCESS:      15106  HIT:       3063  MISS:      12043
cpu0_STLB PREFETCH  ACCESS:          0  HIT:          0  MISS:          0
cpu0_STLB WRITEBACK ACCESS:          0  HIT:          0  MISS:          0
cpu0_STLB TRANSLATION ACCESS:          0  HIT:          0  MISS:          0
cpu0_STLB PREFETCH  REQUESTED:          0  ISSUED:          0  USEFUL:          0  USELESS:          0
cpu0_STLB AVERAGE MISS LATENCY: 28.8862 cycles
cpu0_L1D TOTAL     ACCESS:   26273737  HIT:   24729977  MISS:    1543760
cpu0_L1D LOAD      ACCESS:   12784381  HIT:   11517894  MISS:    1266487
cpu0_L1D RFO       ACCESS:   13420640  HIT:   13144439  MISS:     276201
cpu0_L1D PREFETCH  ACCESS:          0  HIT:          0  MISS:          0
cpu0_L1D WRITEBACK ACCESS:          0  HIT:          0  MISS:          0
cpu0_L1D TRANSLATION ACCESS:      68716  HIT:      67644  MISS:       1072
cpu0_L1D PREFETCH  REQUESTED:          0  ISSUED:          0  USEFUL:          0  USELESS:          0
cpu0_L1D AVERAGE MISS LATENCY: 263.353 cycles
cpu0_L2C TOTAL     ACCESS:    1957123  HIT:     462064  MISS:    1495059
cpu0_L2C LOAD      ACCESS:    1266859  HIT:      46443  MISS:    1220416
cpu0_L2C RFO       ACCESS:     276201  HIT:       1818  MISS:     274383
cpu0_L2C PREFETCH  ACCESS:          0  HIT:          0  MISS:          0
cpu0_L2C WRITEBACK ACCESS:     412991  HIT:     412940  MISS:         51
cpu0_L2C TRANSLATION ACCESS:       1072  HIT:        863  MISS:        209
cpu0_L2C PREFETCH  REQUESTED:          0  ISSUED:          0  USEFUL:          0  USELESS:          0
cpu0_L2C AVERAGE MISS LATENCY: 260.582 cycles
LLC TOTAL     ACCESS:    1905707  HIT:     260021  MISS:    1645686
LLC LOAD      ACCESS:    1220416  HIT:     137442  MISS:    1082974
LLC RFO       ACCESS:     274383  HIT:      23561  MISS:     250822
LLC PREFETCH  ACCESS:          0  HIT:          0  MISS:          0
LLC WRITEBACK ACCESS:     410699  HIT:      98897  MISS:     311802
LLC TRANSLATION ACCESS:        209  HIT:        121  MISS:         88
LLC PREFETCH  REQUESTED:          0  ISSUED:          0  USEFUL:          0  USELESS:          0
LLC AVERAGE MISS LATENCY: 217.643 cycles
OPTgen accesses: 30444
OPTgen hits: 5511
OPTgen hit rate: 18.1021



DRAM Statistics
 CHANNEL 0
 RQ ROW_BUFFER_HIT:     205618  ROW_BUFFER_MISS:    1128198
 DBUS AVG_CONGESTED_CYCLE:    3.93898
 WQ ROW_BUFFER_HIT:      50259  ROW_BUFFER_MISS:     349041  FULL:       5556


CPU 0 Branch Prediction Accuracy: 87.437% MPKI: 28.6507 Average ROB Occupancy at Mispredict: 19.8788
Branch type MPKI
BRANCH_DIRECT_JUMP: 0.0008
BRANCH_INDIRECT: 0.00403
BRANCH_CONDITIONAL: 28.6428
BRANCH_DIRECT_CALL: 0.00114
BRANCH_INDIRECT_CALL: 0.0008
BRANCH_RETURN: 0.00114

