
*** ChampSim Multicore Out-of-Order Simulator ***

Warmup Instructions: 10000000
Simulation Instructions: 100000000
Number of CPUs: 1
Off-chip DRAM Size: 4 GiB Channels: 1 Width: 64-bit Data Rate: 3200 MT/s

VirtualMemory physical capacity: 8588881920 num_ppages: 2096895
VirtualMemory page size: 4096 log2_page_size: 12

CPU 0 runs /datasets/cs240c-wi22-a00-public/data/Assignment2/gcc_13B.trace.xz
CPU 0 Bimodal branch predictor
Basic BTB sets: 1024 ways: 8 indirect buffer size: 4096 RAS size: 64
Initialize Hawkeye state
Heartbeat CPU 0 instructions: 10000003 cycles: 2971460 heartbeat IPC: 3.36535 cumulative IPC: 3.36535 (Simulation time: 0 hr 0 min 40 sec) 

Warmup complete CPU 0 instructions: 10000003 cycles: 2971460 (Simulation time: 0 hr 0 min 40 sec) 

Heartbeat CPU 0 instructions: 20000003 cycles: 49386780 heartbeat IPC: 0.215446 cumulative IPC: 0.215446 (Simulation time: 0 hr 2 min 31 sec) 
Heartbeat CPU 0 instructions: 30000002 cycles: 102371181 heartbeat IPC: 0.188735 cumulative IPC: 0.201208 (Simulation time: 0 hr 4 min 36 sec) 
Heartbeat CPU 0 instructions: 40000004 cycles: 138733416 heartbeat IPC: 0.275011 cumulative IPC: 0.220975 (Simulation time: 0 hr 6 min 26 sec) 
Heartbeat CPU 0 instructions: 50000002 cycles: 157010444 heartbeat IPC: 0.547135 cumulative IPC: 0.259675 (Simulation time: 0 hr 7 min 11 sec) 
Heartbeat CPU 0 instructions: 60000003 cycles: 175002113 heartbeat IPC: 0.555813 cumulative IPC: 0.290646 (Simulation time: 0 hr 7 min 54 sec) 
Heartbeat CPU 0 instructions: 70000000 cycles: 192893058 heartbeat IPC: 0.558942 cumulative IPC: 0.31592 (Simulation time: 0 hr 8 min 37 sec) 
Heartbeat CPU 0 instructions: 80000002 cycles: 210253141 heartbeat IPC: 0.576034 cumulative IPC: 0.337705 (Simulation time: 0 hr 9 min 17 sec) 
Heartbeat CPU 0 instructions: 90000000 cycles: 228389047 heartbeat IPC: 0.551392 cumulative IPC: 0.354897 (Simulation time: 0 hr 9 min 58 sec) 
Heartbeat CPU 0 instructions: 100000000 cycles: 246146430 heartbeat IPC: 0.563146 cumulative IPC: 0.370104 (Simulation time: 0 hr 10 min 39 sec) 
Heartbeat CPU 0 instructions: 110000002 cycles: 270976073 heartbeat IPC: 0.402745 cumulative IPC: 0.373128 (Simulation time: 0 hr 11 min 30 sec) 
Finished CPU 0 instructions: 100000004 cycles: 268004614 cumulative IPC: 0.373128 (Simulation time: 0 hr 11 min 30 sec) 

ChampSim completed all CPUs

Region of Interest Statistics

CPU 0 cumulative IPC: 0.373128 instructions: 100000004 cycles: 268004614
cpu0_DTLB TOTAL     ACCESS:   19461550  HIT:   19359361  MISS:     102189
cpu0_DTLB LOAD      ACCESS:   14026647  HIT:   13939432  MISS:      87215
cpu0_DTLB RFO       ACCESS:    5434903  HIT:    5419929  MISS:      14974
cpu0_DTLB PREFETCH  ACCESS:          0  HIT:          0  MISS:          0
cpu0_DTLB WRITEBACK ACCESS:          0  HIT:          0  MISS:          0
cpu0_DTLB TRANSLATION ACCESS:          0  HIT:          0  MISS:          0
cpu0_DTLB PREFETCH  REQUESTED:          0  ISSUED:          0  USEFUL:          0  USELESS:          0
cpu0_DTLB AVERAGE MISS LATENCY: 29.1339 cycles
cpu0_ITLB TOTAL     ACCESS:   10352380  HIT:   10352319  MISS:         61
cpu0_ITLB LOAD      ACCESS:   10352380  HIT:   10352319  MISS:         61
cpu0_ITLB RFO       ACCESS:          0  HIT:          0  MISS:          0
cpu0_ITLB PREFETCH  ACCESS:          0  HIT:          0  MISS:          0
cpu0_ITLB WRITEBACK ACCESS:          0  HIT:          0  MISS:          0
cpu0_ITLB TRANSLATION ACCESS:          0  HIT:          0  MISS:          0
cpu0_ITLB PREFETCH  REQUESTED:          0  ISSUED:          0  USEFUL:          0  USELESS:          0
cpu0_ITLB AVERAGE MISS LATENCY: 143.852 cycles
cpu0_L1I TOTAL     ACCESS:    6565305  HIT:    6564933  MISS:        372
cpu0_L1I LOAD      ACCESS:    6565305  HIT:    6564933  MISS:        372
cpu0_L1I RFO       ACCESS:          0  HIT:          0  MISS:          0
cpu0_L1I PREFETCH  ACCESS:          0  HIT:          0  MISS:          0
cpu0_L1I WRITEBACK ACCESS:          0  HIT:          0  MISS:          0
cpu0_L1I TRANSLATION ACCESS:          0  HIT:          0  MISS:          0
cpu0_L1I PREFETCH  REQUESTED:          0  ISSUED:          0  USEFUL:          0  USELESS:          0
cpu0_L1I AVERAGE MISS LATENCY: 171.422 cycles
cpu0_STLB TOTAL     ACCESS:     102250  HIT:      33350  MISS:      68900
cpu0_STLB LOAD      ACCESS:      87276  HIT:      30307  MISS:      56969
cpu0_STLB RFO       ACCESS:      14974  HIT:       3043  MISS:      11931
cpu0_STLB PREFETCH  ACCESS:          0  HIT:          0  MISS:          0
cpu0_STLB WRITEBACK ACCESS:          0  HIT:          0  MISS:          0
cpu0_STLB TRANSLATION ACCESS:          0  HIT:          0  MISS:          0
cpu0_STLB PREFETCH  REQUESTED:          0  ISSUED:          0  USEFUL:          0  USELESS:          0
cpu0_STLB AVERAGE MISS LATENCY: 29.9749 cycles
cpu0_L1D TOTAL     ACCESS:   26263106  HIT:   24719346  MISS:    1543760
cpu0_L1D LOAD      ACCESS:   12773308  HIT:   11506544  MISS:    1266764
cpu0_L1D RFO       ACCESS:   13421104  HIT:   13145180  MISS:     275924
cpu0_L1D PREFETCH  ACCESS:          0  HIT:          0  MISS:          0
cpu0_L1D WRITEBACK ACCESS:          0  HIT:          0  MISS:          0
cpu0_L1D TRANSLATION ACCESS:      68694  HIT:      67622  MISS:       1072
cpu0_L1D PREFETCH  REQUESTED:          0  ISSUED:          0  USEFUL:          0  USELESS:          0
cpu0_L1D AVERAGE MISS LATENCY: 263.188 cycles
cpu0_L2C TOTAL     ACCESS:    1956067  HIT:     461008  MISS:    1495059
cpu0_L2C LOAD      ACCESS:    1267136  HIT:      46443  MISS:    1220693
cpu0_L2C RFO       ACCESS:     275924  HIT:       1818  MISS:     274106
cpu0_L2C PREFETCH  ACCESS:          0  HIT:          0  MISS:          0
cpu0_L2C WRITEBACK ACCESS:     411935  HIT:     411884  MISS:         51
cpu0_L2C TRANSLATION ACCESS:       1072  HIT:        863  MISS:        209
cpu0_L2C PREFETCH  REQUESTED:          0  ISSUED:          0  USEFUL:          0  USELESS:          0
cpu0_L2C AVERAGE MISS LATENCY: 260.411 cycles
LLC TOTAL     ACCESS:    1904651  HIT:     261285  MISS:    1643366
LLC LOAD      ACCESS:    1220692  HIT:     139450  MISS:    1081242
LLC RFO       ACCESS:     274106  HIT:      30355  MISS:     243751
LLC PREFETCH  ACCESS:          0  HIT:          0  MISS:          0
LLC WRITEBACK ACCESS:     409644  HIT:      91361  MISS:     318283
LLC TRANSLATION ACCESS:        209  HIT:        119  MISS:         90
LLC PREFETCH  REQUESTED:          0  ISSUED:          0  USEFUL:          0  USELESS:          0
LLC AVERAGE MISS LATENCY: 217.805 cycles
OPTgen accesses: 30444
OPTgen hits: 5160
OPTgen hit rate: 16.9492



DRAM Statistics
 CHANNEL 0
 RQ ROW_BUFFER_HIT:     206282  ROW_BUFFER_MISS:    1118739
 DBUS AVG_CONGESTED_CYCLE:     3.9327
 WQ ROW_BUFFER_HIT:      46445  ROW_BUFFER_MISS:     341109  FULL:      21776


CPU 0 Branch Prediction Accuracy: 87.437% MPKI: 28.6507 Average ROB Occupancy at Mispredict: 19.8823
Branch type MPKI
BRANCH_DIRECT_JUMP: 0.0008
BRANCH_INDIRECT: 0.00403
BRANCH_CONDITIONAL: 28.6428
BRANCH_DIRECT_CALL: 0.00114
BRANCH_INDIRECT_CALL: 0.0008
BRANCH_RETURN: 0.00114

