
*** ChampSim Multicore Out-of-Order Simulator ***

Warmup Instructions: 10000000
Simulation Instructions: 100000000
Number of CPUs: 1
Off-chip DRAM Size: 4 GiB Channels: 1 Width: 64-bit Data Rate: 3200 MT/s

VirtualMemory physical capacity: 8588881920 num_ppages: 2096895
VirtualMemory page size: 4096 log2_page_size: 12

CPU 0 runs /datasets/cs240c-wi22-a00-public/data/Assignment2/astar_313B.trace.xz
CPU 0 Bimodal branch predictor
Basic BTB sets: 1024 ways: 8 indirect buffer size: 4096 RAS size: 64
Initialize Hawkeye state
Heartbeat CPU 0 instructions: 10000003 cycles: 3955946 heartbeat IPC: 2.52784 cumulative IPC: 2.52784 (Simulation time: 0 hr 1 min 2 sec) 

Warmup complete CPU 0 instructions: 10000003 cycles: 3955946 (Simulation time: 0 hr 1 min 2 sec) 

Heartbeat CPU 0 instructions: 20000004 cycles: 59064261 heartbeat IPC: 0.181461 cumulative IPC: 0.181461 (Simulation time: 0 hr 3 min 21 sec) 
Heartbeat CPU 0 instructions: 30000001 cycles: 118901921 heartbeat IPC: 0.167119 cumulative IPC: 0.173995 (Simulation time: 0 hr 6 min 26 sec) 
Heartbeat CPU 0 instructions: 40000000 cycles: 179772512 heartbeat IPC: 0.164283 cumulative IPC: 0.170632 (Simulation time: 0 hr 9 min 39 sec) 
Heartbeat CPU 0 instructions: 50000001 cycles: 234564185 heartbeat IPC: 0.182509 cumulative IPC: 0.173454 (Simulation time: 0 hr 11 min 59 sec) 
Heartbeat CPU 0 instructions: 60000000 cycles: 289641302 heartbeat IPC: 0.181564 cumulative IPC: 0.175018 (Simulation time: 0 hr 14 min 37 sec) 
Heartbeat CPU 0 instructions: 70000000 cycles: 348342300 heartbeat IPC: 0.170355 cumulative IPC: 0.174223 (Simulation time: 0 hr 17 min 27 sec) 
Heartbeat CPU 0 instructions: 80000000 cycles: 403362998 heartbeat IPC: 0.18175 cumulative IPC: 0.17526 (Simulation time: 0 hr 19 min 46 sec) 
Heartbeat CPU 0 instructions: 90000001 cycles: 459468168 heartbeat IPC: 0.178237 cumulative IPC: 0.175626 (Simulation time: 0 hr 22 min 9 sec) 
Heartbeat CPU 0 instructions: 100000000 cycles: 512666917 heartbeat IPC: 0.187974 cumulative IPC: 0.176918 (Simulation time: 0 hr 24 min 23 sec) 
Heartbeat CPU 0 instructions: 110000000 cycles: 569603336 heartbeat IPC: 0.175635 cumulative IPC: 0.176789 (Simulation time: 0 hr 27 min 9 sec) 
Finished CPU 0 instructions: 100000001 cycles: 565647391 cumulative IPC: 0.176789 (Simulation time: 0 hr 27 min 9 sec) 

ChampSim completed all CPUs

Region of Interest Statistics

CPU 0 cumulative IPC: 0.176789 instructions: 100000001 cycles: 565647391
cpu0_DTLB TOTAL     ACCESS:   34354483  HIT:   30535820  MISS:    3818663
cpu0_DTLB LOAD      ACCESS:   26411194  HIT:   23789141  MISS:    2622053
cpu0_DTLB RFO       ACCESS:    7943289  HIT:    6746679  MISS:    1196610
cpu0_DTLB PREFETCH  ACCESS:          0  HIT:          0  MISS:          0
cpu0_DTLB WRITEBACK ACCESS:          0  HIT:          0  MISS:          0
cpu0_DTLB TRANSLATION ACCESS:          0  HIT:          0  MISS:          0
cpu0_DTLB PREFETCH  REQUESTED:          0  ISSUED:          0  USEFUL:          0  USELESS:          0
cpu0_DTLB AVERAGE MISS LATENCY: 156.259 cycles
cpu0_ITLB TOTAL     ACCESS:   11440163  HIT:   11440163  MISS:          0
cpu0_ITLB LOAD      ACCESS:   11440163  HIT:   11440163  MISS:          0
cpu0_ITLB RFO       ACCESS:          0  HIT:          0  MISS:          0
cpu0_ITLB PREFETCH  ACCESS:          0  HIT:          0  MISS:          0
cpu0_ITLB WRITEBACK ACCESS:          0  HIT:          0  MISS:          0
cpu0_ITLB TRANSLATION ACCESS:          0  HIT:          0  MISS:          0
cpu0_ITLB PREFETCH  REQUESTED:          0  ISSUED:          0  USEFUL:          0  USELESS:          0
cpu0_ITLB AVERAGE MISS LATENCY: -nan cycles
cpu0_L1I TOTAL     ACCESS:        129  HIT:        126  MISS:          3
cpu0_L1I LOAD      ACCESS:        129  HIT:        126  MISS:          3
cpu0_L1I RFO       ACCESS:          0  HIT:          0  MISS:          0
cpu0_L1I PREFETCH  ACCESS:          0  HIT:          0  MISS:          0
cpu0_L1I WRITEBACK ACCESS:          0  HIT:          0  MISS:          0
cpu0_L1I TRANSLATION ACCESS:          0  HIT:          0  MISS:          0
cpu0_L1I PREFETCH  REQUESTED:          0  ISSUED:          0  USEFUL:          0  USELESS:          0
cpu0_L1I AVERAGE MISS LATENCY: 197 cycles
cpu0_STLB TOTAL     ACCESS:    3818663  HIT:    1896082  MISS:    1922581
cpu0_STLB LOAD      ACCESS:    2622053  HIT:    1784410  MISS:     837643
cpu0_STLB RFO       ACCESS:    1196610  HIT:     111672  MISS:    1084938
cpu0_STLB PREFETCH  ACCESS:          0  HIT:          0  MISS:          0
cpu0_STLB WRITEBACK ACCESS:          0  HIT:          0  MISS:          0
cpu0_STLB TRANSLATION ACCESS:          0  HIT:          0  MISS:          0
cpu0_STLB PREFETCH  REQUESTED:          0  ISSUED:          0  USEFUL:          0  USELESS:          0
cpu0_STLB AVERAGE MISS LATENCY: 292.299 cycles
cpu0_L1D TOTAL     ACCESS:   35961441  HIT:   30108697  MISS:    5852744
cpu0_L1D LOAD      ACCESS:   24414321  HIT:   20483354  MISS:    3930967
cpu0_L1D RFO       ACCESS:   10121057  HIT:    8210402  MISS:    1910655
cpu0_L1D PREFETCH  ACCESS:          0  HIT:          0  MISS:          0
cpu0_L1D WRITEBACK ACCESS:          0  HIT:          0  MISS:          0
cpu0_L1D TRANSLATION ACCESS:    1426063  HIT:    1414941  MISS:      11122
cpu0_L1D PREFETCH  REQUESTED:          0  ISSUED:          0  USEFUL:          0  USELESS:          0
cpu0_L1D AVERAGE MISS LATENCY: 369.75 cycles
cpu0_L2C TOTAL     ACCESS:    8697453  HIT:    4509726  MISS:    4187727
cpu0_L2C LOAD      ACCESS:    3930959  HIT:    1549511  MISS:    2381448
cpu0_L2C RFO       ACCESS:    1910655  HIT:     106297  MISS:    1804358
cpu0_L2C PREFETCH  ACCESS:          0  HIT:          0  MISS:          0
cpu0_L2C WRITEBACK ACCESS:    2844717  HIT:    2844539  MISS:        178
cpu0_L2C TRANSLATION ACCESS:      11122  HIT:       9379  MISS:       1743
cpu0_L2C PREFETCH  REQUESTED:          0  ISSUED:          0  USEFUL:          0  USELESS:          0
cpu0_L2C AVERAGE MISS LATENCY: 501.352 cycles
LLC TOTAL     ACCESS:    6918053  HIT:    2626689  MISS:    4291364
LLC LOAD      ACCESS:    2381448  HIT:     483511  MISS:    1897937
LLC RFO       ACCESS:    1804358  HIT:     738874  MISS:    1065484
LLC PREFETCH  ACCESS:          0  HIT:          0  MISS:          0
LLC WRITEBACK ACCESS:    2730504  HIT:    1403360  MISS:    1327144
LLC TRANSLATION ACCESS:       1743  HIT:        944  MISS:        799
LLC PREFETCH  REQUESTED:          0  ISSUED:          0  USEFUL:          0  USELESS:          0
LLC AVERAGE MISS LATENCY: 468.749 cycles
OPTgen accesses: 73040
OPTgen hits: 25978
OPTgen hit rate: 35.5668



DRAM Statistics
 CHANNEL 0
 RQ ROW_BUFFER_HIT:      25136  ROW_BUFFER_MISS:    2938627
 DBUS AVG_CONGESTED_CYCLE:    3.99811
 WQ ROW_BUFFER_HIT:     205410  ROW_BUFFER_MISS:    1387683  FULL:     123841


CPU 0 Branch Prediction Accuracy: 88.672% MPKI: 23.9003 Average ROB Occupancy at Mispredict: 22.8524
Branch type MPKI
BRANCH_DIRECT_JUMP: 1e-05
BRANCH_INDIRECT: 0
BRANCH_CONDITIONAL: 23.8999
BRANCH_DIRECT_CALL: 0
BRANCH_INDIRECT_CALL: 0.00038
BRANCH_RETURN: 0

