
*** ChampSim Multicore Out-of-Order Simulator ***

Warmup Instructions: 10000000
Simulation Instructions: 100000000
Number of CPUs: 1
Off-chip DRAM Size: 4 GiB Channels: 1 Width: 64-bit Data Rate: 3200 MT/s

VirtualMemory physical capacity: 8588881920 num_ppages: 2096895
VirtualMemory page size: 4096 log2_page_size: 12

CPU 0 runs /datasets/cs240c-wi22-a00-public/data/Assignment2/leslie3d_1186B.trace.xz
CPU 0 Bimodal branch predictor
Basic BTB sets: 1024 ways: 8 indirect buffer size: 4096 RAS size: 64
Initialize Hawkeye state
Heartbeat CPU 0 instructions: 10000000 cycles: 4308741 heartbeat IPC: 2.32086 cumulative IPC: 2.32086 (Simulation time: 0 hr 1 min 8 sec) 

Warmup complete CPU 0 instructions: 10000005 cycles: 4308742 (Simulation time: 0 hr 1 min 8 sec) 

Heartbeat CPU 0 instructions: 20000000 cycles: 17643991 heartbeat IPC: 0.749892 cumulative IPC: 0.749892 (Simulation time: 0 hr 3 min 8 sec) 
Heartbeat CPU 0 instructions: 30000000 cycles: 30807314 heartbeat IPC: 0.759687 cumulative IPC: 0.754757 (Simulation time: 0 hr 5 min 5 sec) 
Heartbeat CPU 0 instructions: 40000004 cycles: 43829572 heartbeat IPC: 0.767916 cumulative IPC: 0.759093 (Simulation time: 0 hr 7 min 0 sec) 
Heartbeat CPU 0 instructions: 50000001 cycles: 60118627 heartbeat IPC: 0.613909 cumulative IPC: 0.716719 (Simulation time: 0 hr 8 min 55 sec) 
Heartbeat CPU 0 instructions: 60000000 cycles: 95532516 heartbeat IPC: 0.282375 cumulative IPC: 0.548103 (Simulation time: 0 hr 12 min 6 sec) 
Heartbeat CPU 0 instructions: 70000000 cycles: 124355880 heartbeat IPC: 0.346941 cumulative IPC: 0.499804 (Simulation time: 0 hr 15 min 2 sec) 
Heartbeat CPU 0 instructions: 80000003 cycles: 134752915 heartbeat IPC: 0.961813 cumulative IPC: 0.536628 (Simulation time: 0 hr 16 min 37 sec) 
Heartbeat CPU 0 instructions: 90000002 cycles: 145029638 heartbeat IPC: 0.973073 cumulative IPC: 0.568501 (Simulation time: 0 hr 18 min 13 sec) 
Heartbeat CPU 0 instructions: 100000000 cycles: 155267351 heartbeat IPC: 0.97678 cumulative IPC: 0.59619 (Simulation time: 0 hr 19 min 49 sec) 
Heartbeat CPU 0 instructions: 110000000 cycles: 165551335 heartbeat IPC: 0.972386 cumulative IPC: 0.620183 (Simulation time: 0 hr 21 min 24 sec) 
Finished CPU 0 instructions: 100000000 cycles: 161242594 cumulative IPC: 0.620184 (Simulation time: 0 hr 21 min 24 sec) 

ChampSim completed all CPUs

Region of Interest Statistics

CPU 0 cumulative IPC: 0.620184 instructions: 100000000 cycles: 161242594
cpu0_DTLB TOTAL     ACCESS:   27979854  HIT:   27882260  MISS:      97594
cpu0_DTLB LOAD      ACCESS:   23309775  HIT:   23223932  MISS:      85843
cpu0_DTLB RFO       ACCESS:    4670079  HIT:    4658328  MISS:      11751
cpu0_DTLB PREFETCH  ACCESS:          0  HIT:          0  MISS:          0
cpu0_DTLB WRITEBACK ACCESS:          0  HIT:          0  MISS:          0
cpu0_DTLB TRANSLATION ACCESS:          0  HIT:          0  MISS:          0
cpu0_DTLB PREFETCH  REQUESTED:          0  ISSUED:          0  USEFUL:          0  USELESS:          0
cpu0_DTLB AVERAGE MISS LATENCY: 53.1681 cycles
cpu0_ITLB TOTAL     ACCESS:    2889897  HIT:    2889884  MISS:         13
cpu0_ITLB LOAD      ACCESS:    2889897  HIT:    2889884  MISS:         13
cpu0_ITLB RFO       ACCESS:          0  HIT:          0  MISS:          0
cpu0_ITLB PREFETCH  ACCESS:          0  HIT:          0  MISS:          0
cpu0_ITLB WRITEBACK ACCESS:          0  HIT:          0  MISS:          0
cpu0_ITLB TRANSLATION ACCESS:          0  HIT:          0  MISS:          0
cpu0_ITLB PREFETCH  REQUESTED:          0  ISSUED:          0  USEFUL:          0  USELESS:          0
cpu0_ITLB AVERAGE MISS LATENCY: 297.231 cycles
cpu0_L1I TOTAL     ACCESS:    1735709  HIT:    1735329  MISS:        380
cpu0_L1I LOAD      ACCESS:    1735709  HIT:    1735329  MISS:        380
cpu0_L1I RFO       ACCESS:          0  HIT:          0  MISS:          0
cpu0_L1I PREFETCH  ACCESS:          0  HIT:          0  MISS:          0
cpu0_L1I WRITEBACK ACCESS:          0  HIT:          0  MISS:          0
cpu0_L1I TRANSLATION ACCESS:          0  HIT:          0  MISS:          0
cpu0_L1I PREFETCH  REQUESTED:          0  ISSUED:          0  USEFUL:          0  USELESS:          0
cpu0_L1I AVERAGE MISS LATENCY: 340.637 cycles
cpu0_STLB TOTAL     ACCESS:      97607  HIT:      70205  MISS:      27402
cpu0_STLB LOAD      ACCESS:      85856  HIT:      63129  MISS:      22727
cpu0_STLB RFO       ACCESS:      11751  HIT:       7076  MISS:       4675
cpu0_STLB PREFETCH  ACCESS:          0  HIT:          0  MISS:          0
cpu0_STLB WRITEBACK ACCESS:          0  HIT:          0  MISS:          0
cpu0_STLB TRANSLATION ACCESS:          0  HIT:          0  MISS:          0
cpu0_STLB PREFETCH  REQUESTED:          0  ISSUED:          0  USEFUL:          0  USELESS:          0
cpu0_STLB AVERAGE MISS LATENCY: 157.389 cycles
cpu0_L1D TOTAL     ACCESS:   27035029  HIT:   23132243  MISS:    3902786
cpu0_L1D LOAD      ACCESS:   17809634  HIT:   14625808  MISS:    3183826
cpu0_L1D RFO       ACCESS:    9200854  HIT:    8485336  MISS:     715518
cpu0_L1D PREFETCH  ACCESS:          0  HIT:          0  MISS:          0
cpu0_L1D WRITEBACK ACCESS:          0  HIT:          0  MISS:          0
cpu0_L1D TRANSLATION ACCESS:      24541  HIT:      21099  MISS:       3442
cpu0_L1D PREFETCH  REQUESTED:          0  ISSUED:          0  USEFUL:          0  USELESS:          0
cpu0_L1D AVERAGE MISS LATENCY: 351.944 cycles
cpu0_L2C TOTAL     ACCESS:    4956275  HIT:    2399221  MISS:    2557054
cpu0_L2C LOAD      ACCESS:    3184158  HIT:    1037179  MISS:    2146979
cpu0_L2C RFO       ACCESS:     715212  HIT:     307553  MISS:     407659
cpu0_L2C PREFETCH  ACCESS:          0  HIT:          0  MISS:          0
cpu0_L2C WRITEBACK ACCESS:    1053463  HIT:    1051257  MISS:       2206
cpu0_L2C TRANSLATION ACCESS:       3442  HIT:       3232  MISS:        210
cpu0_L2C PREFETCH  REQUESTED:          0  ISSUED:          0  USEFUL:          0  USELESS:          0
cpu0_L2C AVERAGE MISS LATENCY: 520.37 cycles
LLC TOTAL     ACCESS:    3217183  HIT:     877608  MISS:    2339575
LLC LOAD      ACCESS:    2146974  HIT:     562568  MISS:    1584406
LLC RFO       ACCESS:     407649  HIT:     110726  MISS:     296923
LLC PREFETCH  ACCESS:          0  HIT:          0  MISS:          0
LLC WRITEBACK ACCESS:     662350  HIT:     204236  MISS:     458114
LLC TRANSLATION ACCESS:        210  HIT:         78  MISS:        132
LLC PREFETCH  REQUESTED:          0  ISSUED:          0  USEFUL:          0  USELESS:          0
LLC AVERAGE MISS LATENCY: 545.775 cycles
OPTgen accesses: 43403
OPTgen hits: 14145
OPTgen hit rate: 32.5899



DRAM Statistics
 CHANNEL 0
 RQ ROW_BUFFER_HIT:     209690  ROW_BUFFER_MISS:    1671593
 DBUS AVG_CONGESTED_CYCLE:    3.95178
 WQ ROW_BUFFER_HIT:      39783  ROW_BUFFER_MISS:     500604  FULL:      18180


CPU 0 Branch Prediction Accuracy: 96.8384% MPKI: 1.47634 Average ROB Occupancy at Mispredict: 311.537
Branch type MPKI
BRANCH_DIRECT_JUMP: 0.00016
BRANCH_INDIRECT: 0
BRANCH_CONDITIONAL: 1.47504
BRANCH_DIRECT_CALL: 0.00057
BRANCH_INDIRECT_CALL: 0
BRANCH_RETURN: 0.00057

