
*** ChampSim Multicore Out-of-Order Simulator ***

Warmup Instructions: 10000000
Simulation Instructions: 100000000
Number of CPUs: 1
Off-chip DRAM Size: 4 GiB Channels: 1 Width: 64-bit Data Rate: 3200 MT/s

VirtualMemory physical capacity: 8588881920 num_ppages: 2096895
VirtualMemory page size: 4096 log2_page_size: 12

CPU 0 runs /datasets/cs240c-wi22-a00-public/data/Assignment2/lbm_94B.trace.xz
CPU 0 Bimodal branch predictor
Basic BTB sets: 1024 ways: 8 indirect buffer size: 4096 RAS size: 64
Initialize Hawkeye state
Heartbeat CPU 0 instructions: 10000000 cycles: 2544733 heartbeat IPC: 3.92969 cumulative IPC: 3.92969 (Simulation time: 0 hr 0 min 28 sec) 

Warmup complete CPU 0 instructions: 10000004 cycles: 2544734 (Simulation time: 0 hr 0 min 28 sec) 

Heartbeat CPU 0 instructions: 20000000 cycles: 34585939 heartbeat IPC: 0.312098 cumulative IPC: 0.312098 (Simulation time: 0 hr 2 min 54 sec) 
Heartbeat CPU 0 instructions: 30000004 cycles: 66372664 heartbeat IPC: 0.314597 cumulative IPC: 0.313342 (Simulation time: 0 hr 5 min 21 sec) 
Heartbeat CPU 0 instructions: 40000000 cycles: 97238163 heartbeat IPC: 0.323986 cumulative IPC: 0.316812 (Simulation time: 0 hr 7 min 46 sec) 
Heartbeat CPU 0 instructions: 50000001 cycles: 127291967 heartbeat IPC: 0.332737 cumulative IPC: 0.320648 (Simulation time: 0 hr 10 min 3 sec) 
Heartbeat CPU 0 instructions: 60000003 cycles: 156421855 heartbeat IPC: 0.34329 cumulative IPC: 0.324935 (Simulation time: 0 hr 12 min 14 sec) 
Heartbeat CPU 0 instructions: 70000001 cycles: 185568189 heartbeat IPC: 0.343096 cumulative IPC: 0.327827 (Simulation time: 0 hr 14 min 26 sec) 
Heartbeat CPU 0 instructions: 80000003 cycles: 215415839 heartbeat IPC: 0.335035 cumulative IPC: 0.328837 (Simulation time: 0 hr 16 min 35 sec) 
Heartbeat CPU 0 instructions: 90000003 cycles: 245469270 heartbeat IPC: 0.332741 cumulative IPC: 0.32932 (Simulation time: 0 hr 18 min 44 sec) 
Heartbeat CPU 0 instructions: 100000001 cycles: 274800312 heartbeat IPC: 0.340936 cumulative IPC: 0.330572 (Simulation time: 0 hr 20 min 55 sec) 
Heartbeat CPU 0 instructions: 110000003 cycles: 303888415 heartbeat IPC: 0.343783 cumulative IPC: 0.331847 (Simulation time: 0 hr 23 min 3 sec) 
Finished CPU 0 instructions: 100000004 cycles: 301343682 cumulative IPC: 0.331847 (Simulation time: 0 hr 23 min 3 sec) 

ChampSim completed all CPUs

Region of Interest Statistics

CPU 0 cumulative IPC: 0.331847 instructions: 100000004 cycles: 301343682
cpu0_DTLB TOTAL     ACCESS:   13205399  HIT:   13157647  MISS:      47752
cpu0_DTLB LOAD      ACCESS:    6753330  HIT:    6741382  MISS:      11948
cpu0_DTLB RFO       ACCESS:    6452069  HIT:    6416265  MISS:      35804
cpu0_DTLB PREFETCH  ACCESS:          0  HIT:          0  MISS:          0
cpu0_DTLB WRITEBACK ACCESS:          0  HIT:          0  MISS:          0
cpu0_DTLB TRANSLATION ACCESS:          0  HIT:          0  MISS:          0
cpu0_DTLB PREFETCH  REQUESTED:          0  ISSUED:          0  USEFUL:          0  USELESS:          0
cpu0_DTLB AVERAGE MISS LATENCY: 217.148 cycles
cpu0_ITLB TOTAL     ACCESS:     123287  HIT:     123287  MISS:          0
cpu0_ITLB LOAD      ACCESS:     123287  HIT:     123287  MISS:          0
cpu0_ITLB RFO       ACCESS:          0  HIT:          0  MISS:          0
cpu0_ITLB PREFETCH  ACCESS:          0  HIT:          0  MISS:          0
cpu0_ITLB WRITEBACK ACCESS:          0  HIT:          0  MISS:          0
cpu0_ITLB TRANSLATION ACCESS:          0  HIT:          0  MISS:          0
cpu0_ITLB PREFETCH  REQUESTED:          0  ISSUED:          0  USEFUL:          0  USELESS:          0
cpu0_ITLB AVERAGE MISS LATENCY: -nan cycles
cpu0_STLB TOTAL     ACCESS:      47752  HIT:          0  MISS:      47752
cpu0_STLB LOAD      ACCESS:      11948  HIT:          0  MISS:      11948
cpu0_STLB RFO       ACCESS:      35804  HIT:          0  MISS:      35804
cpu0_STLB PREFETCH  ACCESS:          0  HIT:          0  MISS:          0
cpu0_STLB WRITEBACK ACCESS:          0  HIT:          0  MISS:          0
cpu0_STLB TRANSLATION ACCESS:          0  HIT:          0  MISS:          0
cpu0_STLB PREFETCH  REQUESTED:          0  ISSUED:          0  USEFUL:          0  USELESS:          0
cpu0_STLB AVERAGE MISS LATENCY: 208.148 cycles
cpu0_L1D TOTAL     ACCESS:   14655969  HIT:    9617437  MISS:    5038532
cpu0_L1D LOAD      ACCESS:    4303625  HIT:    3540152  MISS:     763473
cpu0_L1D RFO       ACCESS:   10304592  HIT:    6029580  MISS:    4275012
cpu0_L1D PREFETCH  ACCESS:          0  HIT:          0  MISS:          0
cpu0_L1D WRITEBACK ACCESS:          0  HIT:          0  MISS:          0
cpu0_L1D TRANSLATION ACCESS:      47752  HIT:      47705  MISS:         47
cpu0_L1D PREFETCH  REQUESTED:          0  ISSUED:          0  USEFUL:          0  USELESS:          0
cpu0_L1D AVERAGE MISS LATENCY: 367.191 cycles
cpu0_L2C TOTAL     ACCESS:    9313543  HIT:    6258418  MISS:    3055125
cpu0_L2C LOAD      ACCESS:     763473  HIT:          2  MISS:     763471
cpu0_L2C RFO       ACCESS:    4275012  HIT:    1983503  MISS:    2291509
cpu0_L2C PREFETCH  ACCESS:          0  HIT:          0  MISS:          0
cpu0_L2C WRITEBACK ACCESS:    4275011  HIT:    4274913  MISS:         98
cpu0_L2C TRANSLATION ACCESS:         47  HIT:          0  MISS:         47
cpu0_L2C PREFETCH  REQUESTED:          0  ISSUED:          0  USEFUL:          0  USELESS:          0
cpu0_L2C AVERAGE MISS LATENCY: 585.928 cycles
LLC TOTAL     ACCESS:    5346810  HIT:    1696551  MISS:    3650259
LLC LOAD      ACCESS:     763471  HIT:         36  MISS:     763435
LLC RFO       ACCESS:    2291508  HIT:     657105  MISS:    1634403
LLC PREFETCH  ACCESS:          0  HIT:          0  MISS:          0
LLC WRITEBACK ACCESS:    2291784  HIT:    1039395  MISS:    1252389
LLC TRANSLATION ACCESS:         47  HIT:         15  MISS:         32
LLC PREFETCH  REQUESTED:          0  ISSUED:          0  USEFUL:          0  USELESS:          0
LLC AVERAGE MISS LATENCY: 472.823 cycles
OPTgen accesses: 53123
OPTgen hits: 14200
OPTgen hit rate: 26.7304



DRAM Statistics
 CHANNEL 0
 RQ ROW_BUFFER_HIT:      36040  ROW_BUFFER_MISS:    2361706
 DBUS AVG_CONGESTED_CYCLE:    3.99387
 WQ ROW_BUFFER_HIT:      23902  ROW_BUFFER_MISS:    1917636  FULL:          0


CPU 0 Branch Prediction Accuracy: 99.132% MPKI: 0.10209 Average ROB Occupancy at Mispredict: 173.654
Branch type MPKI
BRANCH_DIRECT_JUMP: 0
BRANCH_INDIRECT: 0
BRANCH_CONDITIONAL: 0.10209
BRANCH_DIRECT_CALL: 0
BRANCH_INDIRECT_CALL: 0
BRANCH_RETURN: 0

