
*** ChampSim Multicore Out-of-Order Simulator ***

Warmup Instructions: 10000000
Simulation Instructions: 100000000
Number of CPUs: 1
Off-chip DRAM Size: 4 GiB Channels: 1 Width: 64-bit Data Rate: 3200 MT/s

VirtualMemory physical capacity: 8588881920 num_ppages: 2096895
VirtualMemory page size: 4096 log2_page_size: 12

CPU 0 runs /datasets/cs240c-wi22-a00-public/data/Assignment2/leslie3d_1186B.trace.xz
CPU 0 Bimodal branch predictor
Basic BTB sets: 1024 ways: 8 indirect buffer size: 4096 RAS size: 64
Initialize Hawkeye state
Heartbeat CPU 0 instructions: 10000000 cycles: 4308741 heartbeat IPC: 2.32086 cumulative IPC: 2.32086 (Simulation time: 0 hr 1 min 11 sec) 

Warmup complete CPU 0 instructions: 10000005 cycles: 4308742 (Simulation time: 0 hr 1 min 11 sec) 

Heartbeat CPU 0 instructions: 20000000 cycles: 17834399 heartbeat IPC: 0.739336 cumulative IPC: 0.739335 (Simulation time: 0 hr 3 min 14 sec) 
Heartbeat CPU 0 instructions: 30000000 cycles: 31327177 heartbeat IPC: 0.741137 cumulative IPC: 0.740235 (Simulation time: 0 hr 5 min 16 sec) 
Heartbeat CPU 0 instructions: 40000004 cycles: 44493458 heartbeat IPC: 0.759516 cumulative IPC: 0.746552 (Simulation time: 0 hr 7 min 16 sec) 
Heartbeat CPU 0 instructions: 50000002 cycles: 60718793 heartbeat IPC: 0.61632 cumulative IPC: 0.709093 (Simulation time: 0 hr 9 min 19 sec) 
Heartbeat CPU 0 instructions: 60000000 cycles: 96172416 heartbeat IPC: 0.282059 cumulative IPC: 0.544285 (Simulation time: 0 hr 13 min 3 sec) 
Heartbeat CPU 0 instructions: 70000000 cycles: 125164945 heartbeat IPC: 0.344916 cumulative IPC: 0.496458 (Simulation time: 0 hr 16 min 17 sec) 
Heartbeat CPU 0 instructions: 80000003 cycles: 135563459 heartbeat IPC: 0.961676 cumulative IPC: 0.533314 (Simulation time: 0 hr 18 min 0 sec) 
Heartbeat CPU 0 instructions: 90000002 cycles: 145834923 heartbeat IPC: 0.973571 cumulative IPC: 0.565266 (Simulation time: 0 hr 19 min 42 sec) 
Heartbeat CPU 0 instructions: 100000000 cycles: 156143194 heartbeat IPC: 0.970095 cumulative IPC: 0.592751 (Simulation time: 0 hr 21 min 21 sec) 
Heartbeat CPU 0 instructions: 110000000 cycles: 166395230 heartbeat IPC: 0.975416 cumulative IPC: 0.616955 (Simulation time: 0 hr 23 min 2 sec) 
Finished CPU 0 instructions: 100000000 cycles: 162086489 cumulative IPC: 0.616955 (Simulation time: 0 hr 23 min 2 sec) 

ChampSim completed all CPUs

Region of Interest Statistics

CPU 0 cumulative IPC: 0.616955 instructions: 100000000 cycles: 162086489
cpu0_DTLB TOTAL     ACCESS:   27968169  HIT:   27870415  MISS:      97754
cpu0_DTLB LOAD      ACCESS:   23295032  HIT:   23209030  MISS:      86002
cpu0_DTLB RFO       ACCESS:    4673137  HIT:    4661385  MISS:      11752
cpu0_DTLB PREFETCH  ACCESS:          0  HIT:          0  MISS:          0
cpu0_DTLB WRITEBACK ACCESS:          0  HIT:          0  MISS:          0
cpu0_DTLB TRANSLATION ACCESS:          0  HIT:          0  MISS:          0
cpu0_DTLB PREFETCH  REQUESTED:          0  ISSUED:          0  USEFUL:          0  USELESS:          0
cpu0_DTLB AVERAGE MISS LATENCY: 53.0697 cycles
cpu0_ITLB TOTAL     ACCESS:    2876987  HIT:    2876974  MISS:         13
cpu0_ITLB LOAD      ACCESS:    2876987  HIT:    2876974  MISS:         13
cpu0_ITLB RFO       ACCESS:          0  HIT:          0  MISS:          0
cpu0_ITLB PREFETCH  ACCESS:          0  HIT:          0  MISS:          0
cpu0_ITLB WRITEBACK ACCESS:          0  HIT:          0  MISS:          0
cpu0_ITLB TRANSLATION ACCESS:          0  HIT:          0  MISS:          0
cpu0_ITLB PREFETCH  REQUESTED:          0  ISSUED:          0  USEFUL:          0  USELESS:          0
cpu0_ITLB AVERAGE MISS LATENCY: 297.231 cycles
cpu0_L1I TOTAL     ACCESS:    1736458  HIT:    1736078  MISS:        380
cpu0_L1I LOAD      ACCESS:    1736458  HIT:    1736078  MISS:        380
cpu0_L1I RFO       ACCESS:          0  HIT:          0  MISS:          0
cpu0_L1I PREFETCH  ACCESS:          0  HIT:          0  MISS:          0
cpu0_L1I WRITEBACK ACCESS:          0  HIT:          0  MISS:          0
cpu0_L1I TRANSLATION ACCESS:          0  HIT:          0  MISS:          0
cpu0_L1I PREFETCH  REQUESTED:          0  ISSUED:          0  USEFUL:          0  USELESS:          0
cpu0_L1I AVERAGE MISS LATENCY: 354.658 cycles
cpu0_STLB TOTAL     ACCESS:      97767  HIT:      70365  MISS:      27402
cpu0_STLB LOAD      ACCESS:      86015  HIT:      63288  MISS:      22727
cpu0_STLB RFO       ACCESS:      11752  HIT:       7077  MISS:       4675
cpu0_STLB PREFETCH  ACCESS:          0  HIT:          0  MISS:          0
cpu0_STLB WRITEBACK ACCESS:          0  HIT:          0  MISS:          0
cpu0_STLB TRANSLATION ACCESS:          0  HIT:          0  MISS:          0
cpu0_STLB PREFETCH  REQUESTED:          0  ISSUED:          0  USEFUL:          0  USELESS:          0
cpu0_STLB AVERAGE MISS LATENCY: 157.296 cycles
cpu0_L1D TOTAL     ACCESS:   26988233  HIT:   23085469  MISS:    3902764
cpu0_L1D LOAD      ACCESS:   17764802  HIT:   14581000  MISS:    3183802
cpu0_L1D RFO       ACCESS:    9198890  HIT:    8483370  MISS:     715520
cpu0_L1D PREFETCH  ACCESS:          0  HIT:          0  MISS:          0
cpu0_L1D WRITEBACK ACCESS:          0  HIT:          0  MISS:          0
cpu0_L1D TRANSLATION ACCESS:      24541  HIT:      21099  MISS:       3442
cpu0_L1D PREFETCH  REQUESTED:          0  ISSUED:          0  USEFUL:          0  USELESS:          0
cpu0_L1D AVERAGE MISS LATENCY: 355.757 cycles
cpu0_L2C TOTAL     ACCESS:    4956233  HIT:    2398824  MISS:    2557409
cpu0_L2C LOAD      ACCESS:    3184129  HIT:    1036807  MISS:    2147322
cpu0_L2C RFO       ACCESS:     715196  HIT:     307525  MISS:     407671
cpu0_L2C PREFETCH  ACCESS:          0  HIT:          0  MISS:          0
cpu0_L2C WRITEBACK ACCESS:    1053466  HIT:    1051261  MISS:       2205
cpu0_L2C TRANSLATION ACCESS:       3442  HIT:       3231  MISS:        211
cpu0_L2C PREFETCH  REQUESTED:          0  ISSUED:          0  USEFUL:          0  USELESS:          0
cpu0_L2C AVERAGE MISS LATENCY: 526.116 cycles
LLC TOTAL     ACCESS:    3217539  HIT:     850201  MISS:    2367338
LLC LOAD      ACCESS:    2147312  HIT:     541750  MISS:    1605562
LLC RFO       ACCESS:     407659  HIT:     106037  MISS:     301622
LLC PREFETCH  ACCESS:          0  HIT:          0  MISS:          0
LLC WRITEBACK ACCESS:     662357  HIT:     202333  MISS:     460024
LLC TRANSLATION ACCESS:        211  HIT:         81  MISS:        130
LLC PREFETCH  REQUESTED:          0  ISSUED:          0  USEFUL:          0  USELESS:          0
LLC AVERAGE MISS LATENCY: 545.642 cycles
OPTgen accesses: 43411
OPTgen hits: 13316
OPTgen hit rate: 30.6743



DRAM Statistics
 CHANNEL 0
 RQ ROW_BUFFER_HIT:     204976  ROW_BUFFER_MISS:    1701964
 DBUS AVG_CONGESTED_CYCLE:    3.95148
 WQ ROW_BUFFER_HIT:      40960  ROW_BUFFER_MISS:     508744  FULL:      22189


CPU 0 Branch Prediction Accuracy: 96.8384% MPKI: 1.47634 Average ROB Occupancy at Mispredict: 311.773
Branch type MPKI
BRANCH_DIRECT_JUMP: 0.00016
BRANCH_INDIRECT: 0
BRANCH_CONDITIONAL: 1.47504
BRANCH_DIRECT_CALL: 0.00057
BRANCH_INDIRECT_CALL: 0
BRANCH_RETURN: 0.00057

