
*** ChampSim Multicore Out-of-Order Simulator ***

Warmup Instructions: 10000000
Simulation Instructions: 100000000
Number of CPUs: 1
Off-chip DRAM Size: 4 GiB Channels: 1 Width: 64-bit Data Rate: 3200 MT/s

VirtualMemory physical capacity: 8588881920 num_ppages: 2096895
VirtualMemory page size: 4096 log2_page_size: 12

CPU 0 runs /datasets/cs240c-wi22-a00-public/data/Assignment2/libquantum_964B.trace.xz
CPU 0 Bimodal branch predictor
Basic BTB sets: 1024 ways: 8 indirect buffer size: 4096 RAS size: 64
Initialize Hawkeye state
Heartbeat CPU 0 instructions: 10000001 cycles: 2500058 heartbeat IPC: 3.99991 cumulative IPC: 3.99991 (Simulation time: 0 hr 0 min 20 sec) 

Warmup complete CPU 0 instructions: 10000001 cycles: 2500058 (Simulation time: 0 hr 0 min 20 sec) 

Heartbeat CPU 0 instructions: 20000002 cycles: 18503600 heartbeat IPC: 0.624862 cumulative IPC: 0.624862 (Simulation time: 0 hr 1 min 18 sec) 
Heartbeat CPU 0 instructions: 30000004 cycles: 42087191 heartbeat IPC: 0.424024 cumulative IPC: 0.505215 (Simulation time: 0 hr 3 min 14 sec) 
Heartbeat CPU 0 instructions: 40000001 cycles: 64791970 heartbeat IPC: 0.440436 cumulative IPC: 0.481603 (Simulation time: 0 hr 5 min 20 sec) 
Heartbeat CPU 0 instructions: 50000003 cycles: 71171767 heartbeat IPC: 1.56745 cumulative IPC: 0.582482 (Simulation time: 0 hr 6 min 10 sec) 
Heartbeat CPU 0 instructions: 60000004 cycles: 82272419 heartbeat IPC: 0.900848 cumulative IPC: 0.626784 (Simulation time: 0 hr 7 min 1 sec) 
Heartbeat CPU 0 instructions: 70000003 cycles: 97763152 heartbeat IPC: 0.645547 cumulative IPC: 0.629835 (Simulation time: 0 hr 7 min 48 sec) 
Heartbeat CPU 0 instructions: 80000002 cycles: 124053103 heartbeat IPC: 0.380373 cumulative IPC: 0.57588 (Simulation time: 0 hr 9 min 51 sec) 
Heartbeat CPU 0 instructions: 90000001 cycles: 142002799 heartbeat IPC: 0.557112 cumulative IPC: 0.573465 (Simulation time: 0 hr 11 min 30 sec) 
Heartbeat CPU 0 instructions: 100000001 cycles: 147240533 heartbeat IPC: 1.90922 cumulative IPC: 0.621803 (Simulation time: 0 hr 12 min 12 sec) 
Heartbeat CPU 0 instructions: 110000003 cycles: 171125913 heartbeat IPC: 0.418666 cumulative IPC: 0.593029 (Simulation time: 0 hr 14 min 24 sec) 
Finished CPU 0 instructions: 100000002 cycles: 168625855 cumulative IPC: 0.593029 (Simulation time: 0 hr 14 min 24 sec) 

ChampSim completed all CPUs

Region of Interest Statistics

CPU 0 cumulative IPC: 0.593029 instructions: 100000002 cycles: 168625855
cpu0_DTLB TOTAL     ACCESS:    9085984  HIT:    9032986  MISS:      52998
cpu0_DTLB LOAD      ACCESS:    6212850  HIT:    6181660  MISS:      31190
cpu0_DTLB RFO       ACCESS:    2873134  HIT:    2851326  MISS:      21808
cpu0_DTLB PREFETCH  ACCESS:          0  HIT:          0  MISS:          0
cpu0_DTLB WRITEBACK ACCESS:          0  HIT:          0  MISS:          0
cpu0_DTLB TRANSLATION ACCESS:          0  HIT:          0  MISS:          0
cpu0_DTLB PREFETCH  REQUESTED:          0  ISSUED:          0  USEFUL:          0  USELESS:          0
cpu0_DTLB AVERAGE MISS LATENCY: 38.6914 cycles
cpu0_ITLB TOTAL     ACCESS:    1926285  HIT:    1926284  MISS:          1
cpu0_ITLB LOAD      ACCESS:    1926285  HIT:    1926284  MISS:          1
cpu0_ITLB RFO       ACCESS:          0  HIT:          0  MISS:          0
cpu0_ITLB PREFETCH  ACCESS:          0  HIT:          0  MISS:          0
cpu0_ITLB WRITEBACK ACCESS:          0  HIT:          0  MISS:          0
cpu0_ITLB TRANSLATION ACCESS:          0  HIT:          0  MISS:          0
cpu0_ITLB PREFETCH  REQUESTED:          0  ISSUED:          0  USEFUL:          0  USELESS:          0
cpu0_ITLB AVERAGE MISS LATENCY: 368 cycles
cpu0_L1I TOTAL     ACCESS:         12  HIT:          8  MISS:          4
cpu0_L1I LOAD      ACCESS:         12  HIT:          8  MISS:          4
cpu0_L1I RFO       ACCESS:          0  HIT:          0  MISS:          0
cpu0_L1I PREFETCH  ACCESS:          0  HIT:          0  MISS:          0
cpu0_L1I WRITEBACK ACCESS:          0  HIT:          0  MISS:          0
cpu0_L1I TRANSLATION ACCESS:          0  HIT:          0  MISS:          0
cpu0_L1I PREFETCH  REQUESTED:          0  ISSUED:          0  USEFUL:          0  USELESS:          0
cpu0_L1I AVERAGE MISS LATENCY: 194 cycles
cpu0_STLB TOTAL     ACCESS:      52999  HIT:          0  MISS:      52999
cpu0_STLB LOAD      ACCESS:      31191  HIT:          0  MISS:      31191
cpu0_STLB RFO       ACCESS:      21808  HIT:          0  MISS:      21808
cpu0_STLB PREFETCH  ACCESS:          0  HIT:          0  MISS:          0
cpu0_STLB WRITEBACK ACCESS:          0  HIT:          0  MISS:          0
cpu0_STLB TRANSLATION ACCESS:          0  HIT:          0  MISS:          0
cpu0_STLB PREFETCH  REQUESTED:          0  ISSUED:          0  USEFUL:          0  USELESS:          0
cpu0_STLB AVERAGE MISS LATENCY: 29.6977 cycles
cpu0_L1D TOTAL     ACCESS:    9383215  HIT:    5992774  MISS:    3390441
cpu0_L1D LOAD      ACCESS:    3614486  HIT:     224106  MISS:    3390380
cpu0_L1D RFO       ACCESS:    5715731  HIT:    5715707  MISS:         24
cpu0_L1D PREFETCH  ACCESS:          0  HIT:          0  MISS:          0
cpu0_L1D WRITEBACK ACCESS:          0  HIT:          0  MISS:          0
cpu0_L1D TRANSLATION ACCESS:      52998  HIT:      52961  MISS:         37
cpu0_L1D PREFETCH  REQUESTED:          0  ISSUED:          0  USEFUL:          0  USELESS:          0
cpu0_L1D AVERAGE MISS LATENCY: 424.011 cycles
cpu0_L2C TOTAL     ACCESS:    4919980  HIT:    1529535  MISS:    3390445
cpu0_L2C LOAD      ACCESS:    3390384  HIT:          0  MISS:    3390384
cpu0_L2C RFO       ACCESS:         24  HIT:          0  MISS:         24
cpu0_L2C PREFETCH  ACCESS:          0  HIT:          0  MISS:          0
cpu0_L2C WRITEBACK ACCESS:    1529535  HIT:    1529535  MISS:          0
cpu0_L2C TRANSLATION ACCESS:         37  HIT:          0  MISS:         37
cpu0_L2C PREFETCH  REQUESTED:          0  ISSUED:          0  USEFUL:          0  USELESS:          0
cpu0_L2C AVERAGE MISS LATENCY: 413.009 cycles
LLC TOTAL     ACCESS:    4913669  HIT:     267498  MISS:    4646171
LLC LOAD      ACCESS:    3390384  HIT:     141095  MISS:    3249289
LLC RFO       ACCESS:         24  HIT:         12  MISS:         12
LLC PREFETCH  ACCESS:          0  HIT:          0  MISS:          0
LLC WRITEBACK ACCESS:    1523224  HIT:     126383  MISS:    1396841
LLC TRANSLATION ACCESS:         37  HIT:          8  MISS:         29
LLC PREFETCH  REQUESTED:          0  ISSUED:          0  USEFUL:          0  USELESS:          0
LLC AVERAGE MISS LATENCY: 285.585 cycles
OPTgen accesses: 57310
OPTgen hits: 1288
OPTgen hit rate: 2.24743



DRAM Statistics
 CHANNEL 0
 RQ ROW_BUFFER_HIT:    1778512  ROW_BUFFER_MISS:    1470764
 DBUS AVG_CONGESTED_CYCLE:    3.90026
 WQ ROW_BUFFER_HIT:     263497  ROW_BUFFER_MISS:    1214746  FULL:     359466


CPU 0 Branch Prediction Accuracy: 98.7463% MPKI: 2.70066 Average ROB Occupancy at Mispredict: 44.7797
Branch type MPKI
BRANCH_DIRECT_JUMP: 1e-05
BRANCH_INDIRECT: 0
BRANCH_CONDITIONAL: 2.70053
BRANCH_DIRECT_CALL: 6e-05
BRANCH_INDIRECT_CALL: 0
BRANCH_RETURN: 6e-05

