
*** ChampSim Multicore Out-of-Order Simulator ***

Warmup Instructions: 10000000
Simulation Instructions: 100000000
Number of CPUs: 1
Off-chip DRAM Size: 4 GiB Channels: 1 Width: 64-bit Data Rate: 3200 MT/s

VirtualMemory physical capacity: 8588881920 num_ppages: 2096895
VirtualMemory page size: 4096 log2_page_size: 12

CPU 0 runs /datasets/cs240c-wi22-a00-public/data/Assignment2/GemsFDTD_712B.trace.xz
CPU 0 Bimodal branch predictor
Basic BTB sets: 1024 ways: 8 indirect buffer size: 4096 RAS size: 64
Initialize Hawkeye state
Heartbeat CPU 0 instructions: 10000003 cycles: 4479620 heartbeat IPC: 2.23233 cumulative IPC: 2.23233 (Simulation time: 0 hr 1 min 13 sec) 

Warmup complete CPU 0 instructions: 10000003 cycles: 4479620 (Simulation time: 0 hr 1 min 13 sec) 

Heartbeat CPU 0 instructions: 20000003 cycles: 44325523 heartbeat IPC: 0.250967 cumulative IPC: 0.250967 (Simulation time: 0 hr 5 min 51 sec) 
Heartbeat CPU 0 instructions: 30000001 cycles: 84110390 heartbeat IPC: 0.251352 cumulative IPC: 0.251159 (Simulation time: 0 hr 10 min 31 sec) 
Heartbeat CPU 0 instructions: 40000001 cycles: 123983995 heartbeat IPC: 0.250792 cumulative IPC: 0.251037 (Simulation time: 0 hr 15 min 15 sec) 
Heartbeat CPU 0 instructions: 50000002 cycles: 163805447 heartbeat IPC: 0.251121 cumulative IPC: 0.251058 (Simulation time: 0 hr 19 min 56 sec) 
Heartbeat CPU 0 instructions: 60000003 cycles: 203488734 heartbeat IPC: 0.251995 cumulative IPC: 0.251245 (Simulation time: 0 hr 24 min 35 sec) 
Heartbeat CPU 0 instructions: 70000002 cycles: 243315433 heartbeat IPC: 0.251088 cumulative IPC: 0.251219 (Simulation time: 0 hr 29 min 10 sec) 
Heartbeat CPU 0 instructions: 80000000 cycles: 278222033 heartbeat IPC: 0.286479 cumulative IPC: 0.255715 (Simulation time: 0 hr 32 min 24 sec) 
Heartbeat CPU 0 instructions: 90000000 cycles: 312747432 heartbeat IPC: 0.289642 cumulative IPC: 0.259515 (Simulation time: 0 hr 35 min 30 sec) 
Heartbeat CPU 0 instructions: 100000001 cycles: 347603972 heartbeat IPC: 0.28689 cumulative IPC: 0.262296 (Simulation time: 0 hr 38 min 39 sec) 
Heartbeat CPU 0 instructions: 110000002 cycles: 381744040 heartbeat IPC: 0.292911 cumulative IPC: 0.265066 (Simulation time: 0 hr 41 min 44 sec) 
Finished CPU 0 instructions: 100000004 cycles: 377264421 cumulative IPC: 0.265066 (Simulation time: 0 hr 41 min 44 sec) 

ChampSim completed all CPUs

Region of Interest Statistics

CPU 0 cumulative IPC: 0.265066 instructions: 100000004 cycles: 377264421
cpu0_DTLB TOTAL     ACCESS:   29841367  HIT:   29638721  MISS:     202646
cpu0_DTLB LOAD      ACCESS:   23899314  HIT:   23696668  MISS:     202646
cpu0_DTLB RFO       ACCESS:    5942053  HIT:    5942053  MISS:          0
cpu0_DTLB PREFETCH  ACCESS:          0  HIT:          0  MISS:          0
cpu0_DTLB WRITEBACK ACCESS:          0  HIT:          0  MISS:          0
cpu0_DTLB TRANSLATION ACCESS:          0  HIT:          0  MISS:          0
cpu0_DTLB PREFETCH  REQUESTED:          0  ISSUED:          0  USEFUL:          0  USELESS:          0
cpu0_DTLB AVERAGE MISS LATENCY: 158.119 cycles
cpu0_ITLB TOTAL     ACCESS:    1685867  HIT:    1685861  MISS:          6
cpu0_ITLB LOAD      ACCESS:    1685867  HIT:    1685861  MISS:          6
cpu0_ITLB RFO       ACCESS:          0  HIT:          0  MISS:          0
cpu0_ITLB PREFETCH  ACCESS:          0  HIT:          0  MISS:          0
cpu0_ITLB WRITEBACK ACCESS:          0  HIT:          0  MISS:          0
cpu0_ITLB TRANSLATION ACCESS:          0  HIT:          0  MISS:          0
cpu0_ITLB PREFETCH  REQUESTED:          0  ISSUED:          0  USEFUL:          0  USELESS:          0
cpu0_ITLB AVERAGE MISS LATENCY: 280.833 cycles
cpu0_L1I TOTAL     ACCESS:    3165646  HIT:    3165551  MISS:         95
cpu0_L1I LOAD      ACCESS:    3165646  HIT:    3165551  MISS:         95
cpu0_L1I RFO       ACCESS:          0  HIT:          0  MISS:          0
cpu0_L1I PREFETCH  ACCESS:          0  HIT:          0  MISS:          0
cpu0_L1I WRITEBACK ACCESS:          0  HIT:          0  MISS:          0
cpu0_L1I TRANSLATION ACCESS:          0  HIT:          0  MISS:          0
cpu0_L1I PREFETCH  REQUESTED:          0  ISSUED:          0  USEFUL:          0  USELESS:          0
cpu0_L1I AVERAGE MISS LATENCY: 446.074 cycles
cpu0_STLB TOTAL     ACCESS:     202652  HIT:      49544  MISS:     153108
cpu0_STLB LOAD      ACCESS:     202652  HIT:      49544  MISS:     153108
cpu0_STLB RFO       ACCESS:          0  HIT:          0  MISS:          0
cpu0_STLB PREFETCH  ACCESS:          0  HIT:          0  MISS:          0
cpu0_STLB WRITEBACK ACCESS:          0  HIT:          0  MISS:          0
cpu0_STLB TRANSLATION ACCESS:          0  HIT:          0  MISS:          0
cpu0_STLB PREFETCH  REQUESTED:          0  ISSUED:          0  USEFUL:          0  USELESS:          0
cpu0_STLB AVERAGE MISS LATENCY: 197.311 cycles
cpu0_L1D TOTAL     ACCESS:   29762771  HIT:   26414720  MISS:    3348051
cpu0_L1D LOAD      ACCESS:   18530840  HIT:   15184984  MISS:    3345856
cpu0_L1D RFO       ACCESS:   11079382  HIT:   11079362  MISS:         20
cpu0_L1D PREFETCH  ACCESS:          0  HIT:          0  MISS:          0
cpu0_L1D WRITEBACK ACCESS:          0  HIT:          0  MISS:          0
cpu0_L1D TRANSLATION ACCESS:     152549  HIT:     150374  MISS:       2175
cpu0_L1D PREFETCH  REQUESTED:          0  ISSUED:          0  USEFUL:          0  USELESS:          0
cpu0_L1D AVERAGE MISS LATENCY: 676.617 cycles
cpu0_L2C TOTAL     ACCESS:    4725117  HIT:    1561150  MISS:    3163967
cpu0_L2C LOAD      ACCESS:    3345951  HIT:     182093  MISS:    3163858
cpu0_L2C RFO       ACCESS:         20  HIT:          0  MISS:         20
cpu0_L2C PREFETCH  ACCESS:          0  HIT:          0  MISS:          0
cpu0_L2C WRITEBACK ACCESS:    1376971  HIT:    1376967  MISS:          4
cpu0_L2C TRANSLATION ACCESS:       2175  HIT:       2090  MISS:         85
cpu0_L2C PREFETCH  REQUESTED:          0  ISSUED:          0  USEFUL:          0  USELESS:          0
cpu0_L2C AVERAGE MISS LATENCY: 704.333 cycles
LLC TOTAL     ACCESS:    4539470  HIT:     673391  MISS:    3866079
LLC LOAD      ACCESS:    3163858  HIT:     594981  MISS:    2568877
LLC RFO       ACCESS:         20  HIT:          0  MISS:         20
LLC PREFETCH  ACCESS:          0  HIT:          0  MISS:          0
LLC WRITEBACK ACCESS:    1375507  HIT:      78368  MISS:    1297139
LLC TRANSLATION ACCESS:         85  HIT:         42  MISS:         43
LLC PREFETCH  REQUESTED:          0  ISSUED:          0  USEFUL:          0  USELESS:          0
LLC AVERAGE MISS LATENCY: 559.234 cycles
OPTgen accesses: 55329
OPTgen hits: 7801
OPTgen hit rate: 14.0993



DRAM Statistics
 CHANNEL 0
 RQ ROW_BUFFER_HIT:       8616  ROW_BUFFER_MISS:    2560324
 DBUS AVG_CONGESTED_CYCLE:    3.99781
 WQ ROW_BUFFER_HIT:      19016  ROW_BUFFER_MISS:    1353816  FULL:          0


CPU 0 Branch Prediction Accuracy: 90.9863% MPKI: 1.62566 Average ROB Occupancy at Mispredict: 227.549
Branch type MPKI
BRANCH_DIRECT_JUMP: 5e-05
BRANCH_INDIRECT: 0
BRANCH_CONDITIONAL: 1.62559
BRANCH_DIRECT_CALL: 1e-05
BRANCH_INDIRECT_CALL: 0
BRANCH_RETURN: 1e-05

