
*** ChampSim Multicore Out-of-Order Simulator ***

Warmup Instructions: 10000000
Simulation Instructions: 100000000
Number of CPUs: 1
Off-chip DRAM Size: 4 GiB Channels: 1 Width: 64-bit Data Rate: 3200 MT/s

VirtualMemory physical capacity: 8588881920 num_ppages: 2096895
VirtualMemory page size: 4096 log2_page_size: 12

CPU 0 runs /datasets/cs240c-wi22-a00-public/data/Assignment2/milc_360B.trace.xz
CPU 0 Bimodal branch predictor
Basic BTB sets: 1024 ways: 8 indirect buffer size: 4096 RAS size: 64
Initialize Hawkeye state
Heartbeat CPU 0 instructions: 10000001 cycles: 2500103 heartbeat IPC: 3.99984 cumulative IPC: 3.99984 (Simulation time: 0 hr 0 min 34 sec) 

Warmup complete CPU 0 instructions: 10000001 cycles: 2500103 (Simulation time: 0 hr 0 min 34 sec) 

Heartbeat CPU 0 instructions: 20000000 cycles: 20081667 heartbeat IPC: 0.568778 cumulative IPC: 0.568778 (Simulation time: 0 hr 2 min 37 sec) 
Heartbeat CPU 0 instructions: 30000004 cycles: 37566779 heartbeat IPC: 0.571915 cumulative IPC: 0.570342 (Simulation time: 0 hr 4 min 39 sec) 
Heartbeat CPU 0 instructions: 40000001 cycles: 55099332 heartbeat IPC: 0.570367 cumulative IPC: 0.570351 (Simulation time: 0 hr 6 min 41 sec) 
Heartbeat CPU 0 instructions: 50000001 cycles: 76099432 heartbeat IPC: 0.476188 cumulative IPC: 0.543483 (Simulation time: 0 hr 9 min 19 sec) 
Heartbeat CPU 0 instructions: 60000000 cycles: 94820089 heartbeat IPC: 0.534169 cumulative IPC: 0.541595 (Simulation time: 0 hr 11 min 16 sec) 
Heartbeat CPU 0 instructions: 70000000 cycles: 114513500 heartbeat IPC: 0.507784 cumulative IPC: 0.53565 (Simulation time: 0 hr 13 min 13 sec) 
Heartbeat CPU 0 instructions: 80000000 cycles: 131405038 heartbeat IPC: 0.592012 cumulative IPC: 0.543036 (Simulation time: 0 hr 15 min 6 sec) 
Heartbeat CPU 0 instructions: 90000000 cycles: 147566817 heartbeat IPC: 0.618744 cumulative IPC: 0.55147 (Simulation time: 0 hr 16 min 55 sec) 
Heartbeat CPU 0 instructions: 100000002 cycles: 163816765 heartbeat IPC: 0.615387 cumulative IPC: 0.557909 (Simulation time: 0 hr 18 min 43 sec) 
Heartbeat CPU 0 instructions: 110000000 cycles: 180128439 heartbeat IPC: 0.613058 cumulative IPC: 0.562973 (Simulation time: 0 hr 20 min 32 sec) 
Finished CPU 0 instructions: 100000004 cycles: 177628337 cumulative IPC: 0.562973 (Simulation time: 0 hr 20 min 32 sec) 

ChampSim completed all CPUs

Region of Interest Statistics

CPU 0 cumulative IPC: 0.562973 instructions: 100000004 cycles: 177628337
cpu0_DTLB TOTAL     ACCESS:   15527892  HIT:   15313147  MISS:     214745
cpu0_DTLB LOAD      ACCESS:    9097272  HIT:    8884742  MISS:     212530
cpu0_DTLB RFO       ACCESS:    6430620  HIT:    6428405  MISS:       2215
cpu0_DTLB PREFETCH  ACCESS:          0  HIT:          0  MISS:          0
cpu0_DTLB WRITEBACK ACCESS:          0  HIT:          0  MISS:          0
cpu0_DTLB TRANSLATION ACCESS:          0  HIT:          0  MISS:          0
cpu0_DTLB PREFETCH  REQUESTED:          0  ISSUED:          0  USEFUL:          0  USELESS:          0
cpu0_DTLB AVERAGE MISS LATENCY: 83.7811 cycles
cpu0_ITLB TOTAL     ACCESS:    2730847  HIT:    2730844  MISS:          3
cpu0_ITLB LOAD      ACCESS:    2730847  HIT:    2730844  MISS:          3
cpu0_ITLB RFO       ACCESS:          0  HIT:          0  MISS:          0
cpu0_ITLB PREFETCH  ACCESS:          0  HIT:          0  MISS:          0
cpu0_ITLB WRITEBACK ACCESS:          0  HIT:          0  MISS:          0
cpu0_ITLB TRANSLATION ACCESS:          0  HIT:          0  MISS:          0
cpu0_ITLB PREFETCH  REQUESTED:          0  ISSUED:          0  USEFUL:          0  USELESS:          0
cpu0_ITLB AVERAGE MISS LATENCY: 487.667 cycles
cpu0_L1I TOTAL     ACCESS:    6936754  HIT:    6936726  MISS:         28
cpu0_L1I LOAD      ACCESS:    6936754  HIT:    6936726  MISS:         28
cpu0_L1I RFO       ACCESS:          0  HIT:          0  MISS:          0
cpu0_L1I PREFETCH  ACCESS:          0  HIT:          0  MISS:          0
cpu0_L1I WRITEBACK ACCESS:          0  HIT:          0  MISS:          0
cpu0_L1I TRANSLATION ACCESS:          0  HIT:          0  MISS:          0
cpu0_L1I PREFETCH  REQUESTED:          0  ISSUED:          0  USEFUL:          0  USELESS:          0
cpu0_L1I AVERAGE MISS LATENCY: 222.893 cycles
cpu0_STLB TOTAL     ACCESS:     214748  HIT:        125  MISS:     214623
cpu0_STLB LOAD      ACCESS:     212533  HIT:         99  MISS:     212434
cpu0_STLB RFO       ACCESS:       2215  HIT:         26  MISS:       2189
cpu0_STLB PREFETCH  ACCESS:          0  HIT:          0  MISS:          0
cpu0_STLB WRITEBACK ACCESS:          0  HIT:          0  MISS:          0
cpu0_STLB TRANSLATION ACCESS:          0  HIT:          0  MISS:          0
cpu0_STLB PREFETCH  REQUESTED:          0  ISSUED:          0  USEFUL:          0  USELESS:          0
cpu0_STLB AVERAGE MISS LATENCY: 74.8289 cycles
cpu0_L1D TOTAL     ACCESS:   24604624  HIT:   22508233  MISS:    2096391
cpu0_L1D LOAD      ACCESS:    6427904  HIT:    4471906  MISS:    1955998
cpu0_L1D RFO       ACCESS:   17962540  HIT:   17822531  MISS:     140009
cpu0_L1D PREFETCH  ACCESS:          0  HIT:          0  MISS:          0
cpu0_L1D WRITEBACK ACCESS:          0  HIT:          0  MISS:          0
cpu0_L1D TRANSLATION ACCESS:     214180  HIT:     213796  MISS:        384
cpu0_L1D PREFETCH  REQUESTED:          0  ISSUED:          0  USEFUL:          0  USELESS:          0
cpu0_L1D AVERAGE MISS LATENCY: 339.208 cycles
cpu0_L2C TOTAL     ACCESS:    2839086  HIT:     742662  MISS:    2096424
cpu0_L2C LOAD      ACCESS:    1956026  HIT:          0  MISS:    1956026
cpu0_L2C RFO       ACCESS:     140009  HIT:          0  MISS:     140009
cpu0_L2C PREFETCH  ACCESS:          0  HIT:          0  MISS:          0
cpu0_L2C WRITEBACK ACCESS:     742667  HIT:     742660  MISS:          7
cpu0_L2C TRANSLATION ACCESS:        384  HIT:          2  MISS:        382
cpu0_L2C PREFETCH  REQUESTED:          0  ISSUED:          0  USEFUL:          0  USELESS:          0
cpu0_L2C AVERAGE MISS LATENCY: 328.104 cycles
LLC TOTAL     ACCESS:    2839080  HIT:      81423  MISS:    2757657
LLC LOAD      ACCESS:    1956026  HIT:      21512  MISS:    1934514
LLC RFO       ACCESS:     140009  HIT:        129  MISS:     139880
LLC PREFETCH  ACCESS:          0  HIT:          0  MISS:          0
LLC WRITEBACK ACCESS:     742663  HIT:      59755  MISS:     682908
LLC TRANSLATION ACCESS:        382  HIT:         27  MISS:        355
LLC PREFETCH  REQUESTED:          0  ISSUED:          0  USEFUL:          0  USELESS:          0
LLC AVERAGE MISS LATENCY: 233.467 cycles
OPTgen accesses: 35227
OPTgen hits: 241
OPTgen hit rate: 0.684134



DRAM Statistics
 CHANNEL 0
 RQ ROW_BUFFER_HIT:     363246  ROW_BUFFER_MISS:    1711486
 DBUS AVG_CONGESTED_CYCLE:    3.94584
 WQ ROW_BUFFER_HIT:      39154  ROW_BUFFER_MISS:     687908  FULL:          0


CPU 0 Branch Prediction Accuracy: 99.9991% MPKI: 0.00037 Average ROB Occupancy at Mispredict: 88.027
Branch type MPKI
BRANCH_DIRECT_JUMP: 4e-05
BRANCH_INDIRECT: 0
BRANCH_CONDITIONAL: 0.00015
BRANCH_DIRECT_CALL: 9e-05
BRANCH_INDIRECT_CALL: 0
BRANCH_RETURN: 9e-05

