
*** ChampSim Multicore Out-of-Order Simulator ***

Warmup Instructions: 10000000
Simulation Instructions: 100000000
Number of CPUs: 1
Off-chip DRAM Size: 4 GiB Channels: 1 Width: 64-bit Data Rate: 3200 MT/s

VirtualMemory physical capacity: 8588881920 num_ppages: 2096895
VirtualMemory page size: 4096 log2_page_size: 12

CPU 0 runs /datasets/cs240c-wi22-a00-public/data/Assignment2/soplex_217B.trace.xz
CPU 0 Bimodal branch predictor
Basic BTB sets: 1024 ways: 8 indirect buffer size: 4096 RAS size: 64
Initialize Hawkeye state
Heartbeat CPU 0 instructions: 10000000 cycles: 2844436 heartbeat IPC: 3.51564 cumulative IPC: 3.51564 (Simulation time: 0 hr 0 min 34 sec) 

Warmup complete CPU 0 instructions: 10000004 cycles: 2844437 (Simulation time: 0 hr 0 min 34 sec) 

Heartbeat CPU 0 instructions: 20000000 cycles: 34238145 heartbeat IPC: 0.318535 cumulative IPC: 0.318535 (Simulation time: 0 hr 2 min 11 sec) 
Heartbeat CPU 0 instructions: 30000004 cycles: 64377760 heartbeat IPC: 0.331789 cumulative IPC: 0.325027 (Simulation time: 0 hr 3 min 52 sec) 
Heartbeat CPU 0 instructions: 40000003 cycles: 95589743 heartbeat IPC: 0.32039 cumulative IPC: 0.323466 (Simulation time: 0 hr 5 min 32 sec) 
Heartbeat CPU 0 instructions: 50000000 cycles: 124470748 heartbeat IPC: 0.346248 cumulative IPC: 0.328876 (Simulation time: 0 hr 7 min 7 sec) 
Heartbeat CPU 0 instructions: 60000002 cycles: 155130354 heartbeat IPC: 0.326162 cumulative IPC: 0.32833 (Simulation time: 0 hr 8 min 49 sec) 
Heartbeat CPU 0 instructions: 70000000 cycles: 199936267 heartbeat IPC: 0.223185 cumulative IPC: 0.304427 (Simulation time: 0 hr 11 min 9 sec) 
Heartbeat CPU 0 instructions: 80000000 cycles: 232381240 heartbeat IPC: 0.308214 cumulative IPC: 0.304962 (Simulation time: 0 hr 12 min 39 sec) 
Heartbeat CPU 0 instructions: 90000002 cycles: 260309429 heartbeat IPC: 0.358061 cumulative IPC: 0.310722 (Simulation time: 0 hr 14 min 16 sec) 
Heartbeat CPU 0 instructions: 100000001 cycles: 292373131 heartbeat IPC: 0.311879 cumulative IPC: 0.31085 (Simulation time: 0 hr 15 min 54 sec) 
Heartbeat CPU 0 instructions: 110000000 cycles: 320949886 heartbeat IPC: 0.349935 cumulative IPC: 0.314361 (Simulation time: 0 hr 17 min 10 sec) 
Finished CPU 0 instructions: 100000000 cycles: 318105451 cumulative IPC: 0.314361 (Simulation time: 0 hr 17 min 10 sec) 

ChampSim completed all CPUs

Region of Interest Statistics

CPU 0 cumulative IPC: 0.314361 instructions: 100000000 cycles: 318105451
cpu0_DTLB TOTAL     ACCESS:   21862587  HIT:   20996835  MISS:     865752
cpu0_DTLB LOAD      ACCESS:   16697414  HIT:   16013855  MISS:     683559
cpu0_DTLB RFO       ACCESS:    5165173  HIT:    4982980  MISS:     182193
cpu0_DTLB PREFETCH  ACCESS:          0  HIT:          0  MISS:          0
cpu0_DTLB WRITEBACK ACCESS:          0  HIT:          0  MISS:          0
cpu0_DTLB TRANSLATION ACCESS:          0  HIT:          0  MISS:          0
cpu0_DTLB PREFETCH  REQUESTED:          0  ISSUED:          0  USEFUL:          0  USELESS:          0
cpu0_DTLB AVERAGE MISS LATENCY: 15.3114 cycles
cpu0_ITLB TOTAL     ACCESS:    8508236  HIT:    8508218  MISS:         18
cpu0_ITLB LOAD      ACCESS:    8508236  HIT:    8508218  MISS:         18
cpu0_ITLB RFO       ACCESS:          0  HIT:          0  MISS:          0
cpu0_ITLB PREFETCH  ACCESS:          0  HIT:          0  MISS:          0
cpu0_ITLB WRITEBACK ACCESS:          0  HIT:          0  MISS:          0
cpu0_ITLB TRANSLATION ACCESS:          0  HIT:          0  MISS:          0
cpu0_ITLB PREFETCH  REQUESTED:          0  ISSUED:          0  USEFUL:          0  USELESS:          0
cpu0_ITLB AVERAGE MISS LATENCY: 524.833 cycles
cpu0_L1I TOTAL     ACCESS:     354436  HIT:     353783  MISS:        653
cpu0_L1I LOAD      ACCESS:     354436  HIT:     353783  MISS:        653
cpu0_L1I RFO       ACCESS:          0  HIT:          0  MISS:          0
cpu0_L1I PREFETCH  ACCESS:          0  HIT:          0  MISS:          0
cpu0_L1I WRITEBACK ACCESS:          0  HIT:          0  MISS:          0
cpu0_L1I TRANSLATION ACCESS:          0  HIT:          0  MISS:          0
cpu0_L1I PREFETCH  REQUESTED:          0  ISSUED:          0  USEFUL:          0  USELESS:          0
cpu0_L1I AVERAGE MISS LATENCY: 305.109 cycles
cpu0_STLB TOTAL     ACCESS:     865770  HIT:     742256  MISS:     123514
cpu0_STLB LOAD      ACCESS:     683577  HIT:     569415  MISS:     114162
cpu0_STLB RFO       ACCESS:     182193  HIT:     172841  MISS:       9352
cpu0_STLB PREFETCH  ACCESS:          0  HIT:          0  MISS:          0
cpu0_STLB WRITEBACK ACCESS:          0  HIT:          0  MISS:          0
cpu0_STLB TRANSLATION ACCESS:          0  HIT:          0  MISS:          0
cpu0_STLB PREFETCH  REQUESTED:          0  ISSUED:          0  USEFUL:          0  USELESS:          0
cpu0_STLB AVERAGE MISS LATENCY: 43.1425 cycles
cpu0_L1D TOTAL     ACCESS:   18146488  HIT:   12322477  MISS:    5824011
cpu0_L1D LOAD      ACCESS:   12238711  HIT:    7244356  MISS:    4994355
cpu0_L1D RFO       ACCESS:    5787863  HIT:    4963234  MISS:     824629
cpu0_L1D PREFETCH  ACCESS:          0  HIT:          0  MISS:          0
cpu0_L1D WRITEBACK ACCESS:          0  HIT:          0  MISS:          0
cpu0_L1D TRANSLATION ACCESS:     119914  HIT:     114887  MISS:       5027
cpu0_L1D PREFETCH  REQUESTED:          0  ISSUED:          0  USEFUL:          0  USELESS:          0
cpu0_L1D AVERAGE MISS LATENCY: 198.69 cycles
cpu0_L2C TOTAL     ACCESS:    8411847  HIT:    3954610  MISS:    4457237
cpu0_L2C LOAD      ACCESS:    4994434  HIT:    1232156  MISS:    3762278
cpu0_L2C RFO       ACCESS:     824570  HIT:     130466  MISS:     694104
cpu0_L2C PREFETCH  ACCESS:          0  HIT:          0  MISS:          0
cpu0_L2C WRITEBACK ACCESS:    2587816  HIT:    2587712  MISS:        104
cpu0_L2C TRANSLATION ACCESS:       5027  HIT:       4276  MISS:        751
cpu0_L2C PREFETCH  REQUESTED:          0  ISSUED:          0  USEFUL:          0  USELESS:          0
cpu0_L2C AVERAGE MISS LATENCY: 245.052 cycles
LLC TOTAL     ACCESS:    6308085  HIT:    3305884  MISS:    3002201
LLC LOAD      ACCESS:    3762263  HIT:    1513568  MISS:    2248695
LLC RFO       ACCESS:     694102  HIT:     237511  MISS:     456591
LLC PREFETCH  ACCESS:          0  HIT:          0  MISS:          0
LLC WRITEBACK ACCESS:    1850969  HIT:    1554415  MISS:     296554
LLC TRANSLATION ACCESS:        751  HIT:        390  MISS:        361
LLC PREFETCH  REQUESTED:          0  ISSUED:          0  USEFUL:          0  USELESS:          0
LLC AVERAGE MISS LATENCY: 332.476 cycles
OPTgen accesses: 77567
OPTgen hits: 38139
OPTgen hit rate: 49.1691



DRAM Statistics
 CHANNEL 0
 RQ ROW_BUFFER_HIT:     283900  ROW_BUFFER_MISS:    2418534
 DBUS AVG_CONGESTED_CYCLE:    3.95017
 WQ ROW_BUFFER_HIT:      39485  ROW_BUFFER_MISS:     895898  FULL:     219278


CPU 0 Branch Prediction Accuracy: 93.2069% MPKI: 14.28 Average ROB Occupancy at Mispredict: 48.9739
Branch type MPKI
BRANCH_DIRECT_JUMP: 0.00099
BRANCH_INDIRECT: 0.00023
BRANCH_CONDITIONAL: 14.2767
BRANCH_DIRECT_CALL: 0.00062
BRANCH_INDIRECT_CALL: 0.00054
BRANCH_RETURN: 0.00093

