
*** ChampSim Multicore Out-of-Order Simulator ***

Warmup Instructions: 10000000
Simulation Instructions: 100000000
Number of CPUs: 1
Off-chip DRAM Size: 4 GiB Channels: 1 Width: 64-bit Data Rate: 3200 MT/s

VirtualMemory physical capacity: 8588881920 num_ppages: 2096895
VirtualMemory page size: 4096 log2_page_size: 12

CPU 0 runs /datasets/cs240c-wi22-a00-public/data/Assignment2/wrf_1228B.trace.xz
CPU 0 Bimodal branch predictor
Basic BTB sets: 1024 ways: 8 indirect buffer size: 4096 RAS size: 64
Initialize Hawkeye state
Heartbeat CPU 0 instructions: 10000001 cycles: 3904477 heartbeat IPC: 2.56116 cumulative IPC: 2.56116 (Simulation time: 0 hr 0 min 56 sec) 

Warmup complete CPU 0 instructions: 10000001 cycles: 3904477 (Simulation time: 0 hr 0 min 56 sec) 

Heartbeat CPU 0 instructions: 20000001 cycles: 12305373 heartbeat IPC: 1.19035 cumulative IPC: 1.19035 (Simulation time: 0 hr 2 min 6 sec) 
Heartbeat CPU 0 instructions: 30000002 cycles: 24716683 heartbeat IPC: 0.805717 cumulative IPC: 0.960975 (Simulation time: 0 hr 3 min 40 sec) 
Heartbeat CPU 0 instructions: 40000000 cycles: 37914910 heartbeat IPC: 0.757677 cumulative IPC: 0.882082 (Simulation time: 0 hr 5 min 20 sec) 
Heartbeat CPU 0 instructions: 50000001 cycles: 46952059 heartbeat IPC: 1.10654 cumulative IPC: 0.929204 (Simulation time: 0 hr 6 min 27 sec) 
Heartbeat CPU 0 instructions: 60000001 cycles: 57205220 heartbeat IPC: 0.975309 cumulative IPC: 0.938073 (Simulation time: 0 hr 7 min 41 sec) 
Heartbeat CPU 0 instructions: 70000001 cycles: 68567825 heartbeat IPC: 0.88008 cumulative IPC: 0.927883 (Simulation time: 0 hr 8 min 51 sec) 
Heartbeat CPU 0 instructions: 80000004 cycles: 78277818 heartbeat IPC: 1.02987 cumulative IPC: 0.941198 (Simulation time: 0 hr 9 min 45 sec) 
Heartbeat CPU 0 instructions: 90000001 cycles: 87962813 heartbeat IPC: 1.03252 cumulative IPC: 0.95172 (Simulation time: 0 hr 10 min 41 sec) 
Heartbeat CPU 0 instructions: 100000002 cycles: 97641153 heartbeat IPC: 1.03324 cumulative IPC: 0.960136 (Simulation time: 0 hr 11 min 38 sec) 
Heartbeat CPU 0 instructions: 110000000 cycles: 107311316 heartbeat IPC: 1.03411 cumulative IPC: 0.967054 (Simulation time: 0 hr 12 min 33 sec) 
Finished CPU 0 instructions: 100000004 cycles: 103406840 cumulative IPC: 0.967054 (Simulation time: 0 hr 12 min 33 sec) 

ChampSim completed all CPUs

Region of Interest Statistics

CPU 0 cumulative IPC: 0.967054 instructions: 100000004 cycles: 103406840
cpu0_DTLB TOTAL     ACCESS:   19672813  HIT:   19576575  MISS:      96238
cpu0_DTLB LOAD      ACCESS:   17661700  HIT:   17579770  MISS:      81930
cpu0_DTLB RFO       ACCESS:    2011113  HIT:    1996805  MISS:      14308
cpu0_DTLB PREFETCH  ACCESS:          0  HIT:          0  MISS:          0
cpu0_DTLB WRITEBACK ACCESS:          0  HIT:          0  MISS:          0
cpu0_DTLB TRANSLATION ACCESS:          0  HIT:          0  MISS:          0
cpu0_DTLB PREFETCH  REQUESTED:          0  ISSUED:          0  USEFUL:          0  USELESS:          0
cpu0_DTLB AVERAGE MISS LATENCY: 20.0765 cycles
cpu0_ITLB TOTAL     ACCESS:    4200527  HIT:    4200515  MISS:         12
cpu0_ITLB LOAD      ACCESS:    4200527  HIT:    4200515  MISS:         12
cpu0_ITLB RFO       ACCESS:          0  HIT:          0  MISS:          0
cpu0_ITLB PREFETCH  ACCESS:          0  HIT:          0  MISS:          0
cpu0_ITLB WRITEBACK ACCESS:          0  HIT:          0  MISS:          0
cpu0_ITLB TRANSLATION ACCESS:          0  HIT:          0  MISS:          0
cpu0_ITLB PREFETCH  REQUESTED:          0  ISSUED:          0  USEFUL:          0  USELESS:          0
cpu0_ITLB AVERAGE MISS LATENCY: 241.833 cycles
cpu0_L1I TOTAL     ACCESS:    6672427  HIT:    6671679  MISS:        748
cpu0_L1I LOAD      ACCESS:    6672427  HIT:    6671679  MISS:        748
cpu0_L1I RFO       ACCESS:          0  HIT:          0  MISS:          0
cpu0_L1I PREFETCH  ACCESS:          0  HIT:          0  MISS:          0
cpu0_L1I WRITEBACK ACCESS:          0  HIT:          0  MISS:          0
cpu0_L1I TRANSLATION ACCESS:          0  HIT:          0  MISS:          0
cpu0_L1I PREFETCH  REQUESTED:          0  ISSUED:          0  USEFUL:          0  USELESS:          0
cpu0_L1I AVERAGE MISS LATENCY: 355.864 cycles
cpu0_STLB TOTAL     ACCESS:      96250  HIT:      86696  MISS:       9554
cpu0_STLB LOAD      ACCESS:      81942  HIT:      75034  MISS:       6908
cpu0_STLB RFO       ACCESS:      14308  HIT:      11662  MISS:       2646
cpu0_STLB PREFETCH  ACCESS:          0  HIT:          0  MISS:          0
cpu0_STLB WRITEBACK ACCESS:          0  HIT:          0  MISS:          0
cpu0_STLB TRANSLATION ACCESS:          0  HIT:          0  MISS:          0
cpu0_STLB PREFETCH  REQUESTED:          0  ISSUED:          0  USEFUL:          0  USELESS:          0
cpu0_STLB AVERAGE MISS LATENCY: 111.847 cycles
cpu0_L1D TOTAL     ACCESS:   18880871  HIT:   17522475  MISS:    1358396
cpu0_L1D LOAD      ACCESS:   14830773  HIT:   13731731  MISS:    1099042
cpu0_L1D RFO       ACCESS:    4040553  HIT:    3781985  MISS:     258568
cpu0_L1D PREFETCH  ACCESS:          0  HIT:          0  MISS:          0
cpu0_L1D WRITEBACK ACCESS:          0  HIT:          0  MISS:          0
cpu0_L1D TRANSLATION ACCESS:       9545  HIT:       8759  MISS:        786
cpu0_L1D PREFETCH  REQUESTED:          0  ISSUED:          0  USEFUL:          0  USELESS:          0
cpu0_L1D AVERAGE MISS LATENCY: 216.027 cycles
cpu0_L2C TOTAL     ACCESS:    1836333  HIT:     802903  MISS:    1033430
cpu0_L2C LOAD      ACCESS:    1099770  HIT:     287148  MISS:     812622
cpu0_L2C RFO       ACCESS:     258566  HIT:      39548  MISS:     219018
cpu0_L2C PREFETCH  ACCESS:          0  HIT:          0  MISS:          0
cpu0_L2C WRITEBACK ACCESS:     477211  HIT:     475534  MISS:       1677
cpu0_L2C TRANSLATION ACCESS:        786  HIT:        673  MISS:        113
cpu0_L2C PREFETCH  REQUESTED:          0  ISSUED:          0  USEFUL:          0  USELESS:          0
cpu0_L2C AVERAGE MISS LATENCY: 269.726 cycles
LLC TOTAL     ACCESS:    1463798  HIT:     385647  MISS:    1078151
LLC LOAD      ACCESS:     812622  HIT:     145463  MISS:     667159
LLC RFO       ACCESS:     219018  HIT:      43612  MISS:     175406
LLC PREFETCH  ACCESS:          0  HIT:          0  MISS:          0
LLC WRITEBACK ACCESS:     432045  HIT:     196530  MISS:     235515
LLC TRANSLATION ACCESS:        113  HIT:         42  MISS:         71
LLC PREFETCH  REQUESTED:          0  ISSUED:          0  USEFUL:          0  USELESS:          0
LLC AVERAGE MISS LATENCY: 238.44 cycles
OPTgen accesses: 20219
OPTgen hits: 5851
OPTgen hit rate: 28.9381



DRAM Statistics
 CHANNEL 0
 RQ ROW_BUFFER_HIT:      88094  ROW_BUFFER_MISS:     754266
 DBUS AVG_CONGESTED_CYCLE:    3.93083
 WQ ROW_BUFFER_HIT:      31622  ROW_BUFFER_MISS:     293014  FULL:       1294


CPU 0 Branch Prediction Accuracy: 97.4481% MPKI: 2.04611 Average ROB Occupancy at Mispredict: 260.48
Branch type MPKI
BRANCH_DIRECT_JUMP: 0.00028
BRANCH_INDIRECT: 0
BRANCH_CONDITIONAL: 2.0456
BRANCH_DIRECT_CALL: 0.00011
BRANCH_INDIRECT_CALL: 0
BRANCH_RETURN: 0.00012

