
*** ChampSim Multicore Out-of-Order Simulator ***

Warmup Instructions: 10000000
Simulation Instructions: 100000000
Number of CPUs: 1
Off-chip DRAM Size: 4 GiB Channels: 1 Width: 64-bit Data Rate: 3200 MT/s

VirtualMemory physical capacity: 8588881920 num_ppages: 2096895
VirtualMemory page size: 4096 log2_page_size: 12

CPU 0 runs /datasets/cs240c-wi22-a00-public/data/Assignment2/mcf_250B.trace.xz
CPU 0 Bimodal branch predictor
Basic BTB sets: 1024 ways: 8 indirect buffer size: 4096 RAS size: 64
Initialize Hawkeye state
Heartbeat CPU 0 instructions: 10000004 cycles: 3834275 heartbeat IPC: 2.60806 cumulative IPC: 2.60806 (Simulation time: 0 hr 0 min 57 sec) 

Warmup complete CPU 0 instructions: 10000004 cycles: 3834275 (Simulation time: 0 hr 0 min 57 sec) 

Heartbeat CPU 0 instructions: 20000000 cycles: 149715800 heartbeat IPC: 0.0685487 cumulative IPC: 0.0685487 (Simulation time: 0 hr 5 min 13 sec) 
Heartbeat CPU 0 instructions: 30000000 cycles: 287810376 heartbeat IPC: 0.0724141 cumulative IPC: 0.0704284 (Simulation time: 0 hr 9 min 10 sec) 
Heartbeat CPU 0 instructions: 40000000 cycles: 436631382 heartbeat IPC: 0.0671948 cumulative IPC: 0.0693165 (Simulation time: 0 hr 13 min 28 sec) 
Heartbeat CPU 0 instructions: 50000000 cycles: 577946546 heartbeat IPC: 0.0707638 cumulative IPC: 0.0696728 (Simulation time: 0 hr 17 min 45 sec) 
Heartbeat CPU 0 instructions: 60000000 cycles: 718722100 heartbeat IPC: 0.0710351 cumulative IPC: 0.069941 (Simulation time: 0 hr 22 min 18 sec) 
Heartbeat CPU 0 instructions: 70000000 cycles: 852410566 heartbeat IPC: 0.0748008 cumulative IPC: 0.0707067 (Simulation time: 0 hr 26 min 32 sec) 
Heartbeat CPU 0 instructions: 80000000 cycles: 998160696 heartbeat IPC: 0.0686106 cumulative IPC: 0.0703994 (Simulation time: 0 hr 30 min 56 sec) 
Heartbeat CPU 0 instructions: 90000000 cycles: 1124505456 heartbeat IPC: 0.0791485 cumulative IPC: 0.0713858 (Simulation time: 0 hr 34 min 45 sec) 
Heartbeat CPU 0 instructions: 100000000 cycles: 1265554051 heartbeat IPC: 0.0708975 cumulative IPC: 0.0713312 (Simulation time: 0 hr 38 min 54 sec) 
Heartbeat CPU 0 instructions: 110000000 cycles: 1408904098 heartbeat IPC: 0.0697593 cumulative IPC: 0.0711708 (Simulation time: 0 hr 43 min 8 sec) 
Finished CPU 0 instructions: 100000000 cycles: 1405069834 cumulative IPC: 0.0711708 (Simulation time: 0 hr 43 min 8 sec) 

ChampSim completed all CPUs

Region of Interest Statistics

CPU 0 cumulative IPC: 0.0711708 instructions: 100000000 cycles: 1405069834
cpu0_DTLB TOTAL     ACCESS:   20766622  HIT:    2976315  MISS:   17790307
cpu0_DTLB LOAD      ACCESS:   20271351  HIT:    2536936  MISS:   17734415
cpu0_DTLB RFO       ACCESS:     495271  HIT:     439379  MISS:      55892
cpu0_DTLB PREFETCH  ACCESS:          0  HIT:          0  MISS:          0
cpu0_DTLB WRITEBACK ACCESS:          0  HIT:          0  MISS:          0
cpu0_DTLB TRANSLATION ACCESS:          0  HIT:          0  MISS:          0
cpu0_DTLB PREFETCH  REQUESTED:          0  ISSUED:          0  USEFUL:          0  USELESS:          0
cpu0_DTLB AVERAGE MISS LATENCY: 11.9691 cycles
cpu0_ITLB TOTAL     ACCESS:   11314994  HIT:   11314994  MISS:          0
cpu0_ITLB LOAD      ACCESS:   11314994  HIT:   11314994  MISS:          0
cpu0_ITLB RFO       ACCESS:          0  HIT:          0  MISS:          0
cpu0_ITLB PREFETCH  ACCESS:          0  HIT:          0  MISS:          0
cpu0_ITLB WRITEBACK ACCESS:          0  HIT:          0  MISS:          0
cpu0_ITLB TRANSLATION ACCESS:          0  HIT:          0  MISS:          0
cpu0_ITLB PREFETCH  REQUESTED:          0  ISSUED:          0  USEFUL:          0  USELESS:          0
cpu0_ITLB AVERAGE MISS LATENCY: -nan cycles
cpu0_L1I TOTAL     ACCESS:          4  HIT:          4  MISS:          0
cpu0_L1I LOAD      ACCESS:          4  HIT:          4  MISS:          0
cpu0_L1I RFO       ACCESS:          0  HIT:          0  MISS:          0
cpu0_L1I PREFETCH  ACCESS:          0  HIT:          0  MISS:          0
cpu0_L1I WRITEBACK ACCESS:          0  HIT:          0  MISS:          0
cpu0_L1I TRANSLATION ACCESS:          0  HIT:          0  MISS:          0
cpu0_L1I PREFETCH  REQUESTED:          0  ISSUED:          0  USEFUL:          0  USELESS:          0
cpu0_L1I AVERAGE MISS LATENCY: -nan cycles
cpu0_STLB TOTAL     ACCESS:   17790307  HIT:   17413174  MISS:     377133
cpu0_STLB LOAD      ACCESS:   17734415  HIT:   17359418  MISS:     374997
cpu0_STLB RFO       ACCESS:      55892  HIT:      53756  MISS:       2136
cpu0_STLB PREFETCH  ACCESS:          0  HIT:          0  MISS:          0
cpu0_STLB WRITEBACK ACCESS:          0  HIT:          0  MISS:          0
cpu0_STLB TRANSLATION ACCESS:          0  HIT:          0  MISS:          0
cpu0_STLB PREFETCH  REQUESTED:          0  ISSUED:          0  USEFUL:          0  USELESS:          0
cpu0_STLB AVERAGE MISS LATENCY: 140.031 cycles
cpu0_L1D TOTAL     ACCESS:   21384023  HIT:    3440138  MISS:   17943885
cpu0_L1D LOAD      ACCESS:   20343414  HIT:    2559457  MISS:   17783957
cpu0_L1D RFO       ACCESS:     664708  HIT:     633048  MISS:      31660
cpu0_L1D PREFETCH  ACCESS:          0  HIT:          0  MISS:          0
cpu0_L1D WRITEBACK ACCESS:          0  HIT:          0  MISS:          0
cpu0_L1D TRANSLATION ACCESS:     375901  HIT:     247633  MISS:     128268
cpu0_L1D PREFETCH  REQUESTED:          0  ISSUED:          0  USEFUL:          0  USELESS:          0
cpu0_L1D AVERAGE MISS LATENCY: 230.921 cycles
cpu0_L2C TOTAL     ACCESS:   18302458  HIT:    5792212  MISS:   12510246
cpu0_L2C LOAD      ACCESS:   17783930  HIT:    5386575  MISS:   12397355
cpu0_L2C RFO       ACCESS:      31659  HIT:       9144  MISS:      22515
cpu0_L2C PREFETCH  ACCESS:          0  HIT:          0  MISS:          0
cpu0_L2C WRITEBACK ACCESS:     358601  HIT:     358599  MISS:          2
cpu0_L2C TRANSLATION ACCESS:     128268  HIT:      37894  MISS:      90374
cpu0_L2C PREFETCH  REQUESTED:          0  ISSUED:          0  USEFUL:          0  USELESS:          0
cpu0_L2C AVERAGE MISS LATENCY: 315.429 cycles
LLC TOTAL     ACCESS:   12800148  HIT:    5729006  MISS:    7071142
LLC LOAD      ACCESS:   12397355  HIT:    5546581  MISS:    6850774
LLC RFO       ACCESS:      22515  HIT:      11119  MISS:      11396
LLC PREFETCH  ACCESS:          0  HIT:          0  MISS:          0
LLC WRITEBACK ACCESS:     289904  HIT:     161514  MISS:     128390
LLC TRANSLATION ACCESS:      90374  HIT:       9792  MISS:      80582
LLC PREFETCH  REQUESTED:          0  ISSUED:          0  USEFUL:          0  USELESS:          0
LLC AVERAGE MISS LATENCY: 520.903 cycles
OPTgen accesses: 215308
OPTgen hits: 98452
OPTgen hit rate: 45.7261



DRAM Statistics
 CHANNEL 0
 RQ ROW_BUFFER_HIT:      42716  ROW_BUFFER_MISS:    6899876
 DBUS AVG_CONGESTED_CYCLE:    3.96488
 WQ ROW_BUFFER_HIT:       9555  ROW_BUFFER_MISS:     219427  FULL:          0


CPU 0 Branch Prediction Accuracy: 91.6559% MPKI: 25.5287 Average ROB Occupancy at Mispredict: 24.4642
Branch type MPKI
BRANCH_DIRECT_JUMP: 2e-05
BRANCH_INDIRECT: 0
BRANCH_CONDITIONAL: 25.5287
BRANCH_DIRECT_CALL: 0
BRANCH_INDIRECT_CALL: 0
BRANCH_RETURN: 0

