
*** ChampSim Multicore Out-of-Order Simulator ***

Warmup Instructions: 10000000
Simulation Instructions: 100000000
Number of CPUs: 1
Off-chip DRAM Size: 4 GiB Channels: 1 Width: 64-bit Data Rate: 3200 MT/s

VirtualMemory physical capacity: 8588881920 num_ppages: 2096895
VirtualMemory page size: 4096 log2_page_size: 12

CPU 0 runs /datasets/cs240c-wi22-a00-public/data/Assignment2/cactusADM_1039B.trace.xz
CPU 0 Bimodal branch predictor
Basic BTB sets: 1024 ways: 8 indirect buffer size: 4096 RAS size: 64
Initialize Hawkeye state
Heartbeat CPU 0 instructions: 10000004 cycles: 3647107 heartbeat IPC: 2.7419 cumulative IPC: 2.7419 (Simulation time: 0 hr 1 min 2 sec) 

Warmup complete CPU 0 instructions: 10000004 cycles: 3647107 (Simulation time: 0 hr 1 min 2 sec) 

Heartbeat CPU 0 instructions: 20000004 cycles: 13537817 heartbeat IPC: 1.01105 cumulative IPC: 1.01105 (Simulation time: 0 hr 2 min 56 sec) 
Heartbeat CPU 0 instructions: 30000000 cycles: 22855755 heartbeat IPC: 1.0732 cumulative IPC: 1.0412 (Simulation time: 0 hr 4 min 48 sec) 
Heartbeat CPU 0 instructions: 40000000 cycles: 31703599 heartbeat IPC: 1.13022 cumulative IPC: 1.06927 (Simulation time: 0 hr 6 min 36 sec) 
Heartbeat CPU 0 instructions: 50000004 cycles: 40416392 heartbeat IPC: 1.14774 cumulative IPC: 1.08786 (Simulation time: 0 hr 8 min 23 sec) 
Heartbeat CPU 0 instructions: 60000004 cycles: 46570342 heartbeat IPC: 1.62497 cumulative IPC: 1.16487 (Simulation time: 0 hr 9 min 54 sec) 
Heartbeat CPU 0 instructions: 70000002 cycles: 55063959 heartbeat IPC: 1.17735 cumulative IPC: 1.16693 (Simulation time: 0 hr 11 min 40 sec) 
Heartbeat CPU 0 instructions: 80000004 cycles: 63602209 heartbeat IPC: 1.1712 cumulative IPC: 1.16754 (Simulation time: 0 hr 13 min 26 sec) 
Heartbeat CPU 0 instructions: 90000004 cycles: 72456025 heartbeat IPC: 1.12946 cumulative IPC: 1.16264 (Simulation time: 0 hr 15 min 14 sec) 
Heartbeat CPU 0 instructions: 100000000 cycles: 78474276 heartbeat IPC: 1.66161 cumulative IPC: 1.20277 (Simulation time: 0 hr 16 min 45 sec) 
Heartbeat CPU 0 instructions: 110000001 cycles: 86819515 heartbeat IPC: 1.19829 cumulative IPC: 1.20232 (Simulation time: 0 hr 18 min 29 sec) 
Finished CPU 0 instructions: 100000002 cycles: 83172409 cumulative IPC: 1.20232 (Simulation time: 0 hr 18 min 29 sec) 

ChampSim completed all CPUs

Region of Interest Statistics

CPU 0 cumulative IPC: 1.20232 instructions: 100000002 cycles: 83172409
cpu0_DTLB TOTAL     ACCESS:   22871512  HIT:   20822032  MISS:    2049480
cpu0_DTLB LOAD      ACCESS:   18960365  HIT:   17527233  MISS:    1433132
cpu0_DTLB RFO       ACCESS:    3911147  HIT:    3294799  MISS:     616348
cpu0_DTLB PREFETCH  ACCESS:          0  HIT:          0  MISS:          0
cpu0_DTLB WRITEBACK ACCESS:          0  HIT:          0  MISS:          0
cpu0_DTLB TRANSLATION ACCESS:          0  HIT:          0  MISS:          0
cpu0_DTLB PREFETCH  REQUESTED:          0  ISSUED:          0  USEFUL:          0  USELESS:          0
cpu0_DTLB AVERAGE MISS LATENCY: 15.9668 cycles
cpu0_ITLB TOTAL     ACCESS:    1451317  HIT:    1451317  MISS:          0
cpu0_ITLB LOAD      ACCESS:    1451317  HIT:    1451317  MISS:          0
cpu0_ITLB RFO       ACCESS:          0  HIT:          0  MISS:          0
cpu0_ITLB PREFETCH  ACCESS:          0  HIT:          0  MISS:          0
cpu0_ITLB WRITEBACK ACCESS:          0  HIT:          0  MISS:          0
cpu0_ITLB TRANSLATION ACCESS:          0  HIT:          0  MISS:          0
cpu0_ITLB PREFETCH  REQUESTED:          0  ISSUED:          0  USEFUL:          0  USELESS:          0
cpu0_ITLB AVERAGE MISS LATENCY: -nan cycles
cpu0_L1I TOTAL     ACCESS:    8119192  HIT:    8119189  MISS:          3
cpu0_L1I LOAD      ACCESS:    8119192  HIT:    8119189  MISS:          3
cpu0_L1I RFO       ACCESS:          0  HIT:          0  MISS:          0
cpu0_L1I PREFETCH  ACCESS:          0  HIT:          0  MISS:          0
cpu0_L1I WRITEBACK ACCESS:          0  HIT:          0  MISS:          0
cpu0_L1I TRANSLATION ACCESS:          0  HIT:          0  MISS:          0
cpu0_L1I PREFETCH  REQUESTED:          0  ISSUED:          0  USEFUL:          0  USELESS:          0
cpu0_L1I AVERAGE MISS LATENCY: 585.333 cycles
cpu0_STLB TOTAL     ACCESS:    2049480  HIT:    1128844  MISS:     920636
cpu0_STLB LOAD      ACCESS:    1433132  HIT:     834920  MISS:     598212
cpu0_STLB RFO       ACCESS:     616348  HIT:     293924  MISS:     322424
cpu0_STLB PREFETCH  ACCESS:          0  HIT:          0  MISS:          0
cpu0_STLB WRITEBACK ACCESS:          0  HIT:          0  MISS:          0
cpu0_STLB TRANSLATION ACCESS:          0  HIT:          0  MISS:          0
cpu0_STLB PREFETCH  REQUESTED:          0  ISSUED:          0  USEFUL:          0  USELESS:          0
cpu0_STLB AVERAGE MISS LATENCY: 15.3506 cycles
cpu0_L1D TOTAL     ACCESS:   37616645  HIT:   36292919  MISS:    1323726
cpu0_L1D LOAD      ACCESS:   25714952  HIT:   24662549  MISS:    1052403
cpu0_L1D RFO       ACCESS:   10981908  HIT:   10716537  MISS:     265371
cpu0_L1D PREFETCH  ACCESS:          0  HIT:          0  MISS:          0
cpu0_L1D WRITEBACK ACCESS:          0  HIT:          0  MISS:          0
cpu0_L1D TRANSLATION ACCESS:     919785  HIT:     913833  MISS:       5952
cpu0_L1D PREFETCH  REQUESTED:          0  ISSUED:          0  USEFUL:          0  USELESS:          0
cpu0_L1D AVERAGE MISS LATENCY: 283.915 cycles
cpu0_L2C TOTAL     ACCESS:    1592999  HIT:     694171  MISS:     898828
cpu0_L2C LOAD      ACCESS:    1052405  HIT:     419481  MISS:     632924
cpu0_L2C RFO       ACCESS:     265371  HIT:          0  MISS:     265371
cpu0_L2C PREFETCH  ACCESS:          0  HIT:          0  MISS:          0
cpu0_L2C WRITEBACK ACCESS:     269271  HIT:     269057  MISS:        214
cpu0_L2C TRANSLATION ACCESS:       5952  HIT:       5633  MISS:        319
cpu0_L2C PREFETCH  REQUESTED:          0  ISSUED:          0  USEFUL:          0  USELESS:          0
cpu0_L2C AVERAGE MISS LATENCY: 401.909 cycles
LLC TOTAL     ACCESS:    1165779  HIT:     340194  MISS:     825585
LLC LOAD      ACCESS:     632924  HIT:     151371  MISS:     481553
LLC RFO       ACCESS:     265371  HIT:      81971  MISS:     183400
LLC PREFETCH  ACCESS:          0  HIT:          0  MISS:          0
LLC WRITEBACK ACCESS:     267165  HIT:     106824  MISS:     160341
LLC TRANSLATION ACCESS:        319  HIT:         28  MISS:        291
LLC PREFETCH  REQUESTED:          0  ISSUED:          0  USEFUL:          0  USELESS:          0
LLC AVERAGE MISS LATENCY: 414.705 cycles
OPTgen accesses: 15019
OPTgen hits: 4606
OPTgen hit rate: 30.6678



DRAM Statistics
 CHANNEL 0
 RQ ROW_BUFFER_HIT:       6516  ROW_BUFFER_MISS:     658696
 DBUS AVG_CONGESTED_CYCLE:    3.97764
 WQ ROW_BUFFER_HIT:      18603  ROW_BUFFER_MISS:     217373  FULL:        476


CPU 0 Branch Prediction Accuracy: 97.7479% MPKI: 0.04701 Average ROB Occupancy at Mispredict: 283.916
Branch type MPKI
BRANCH_DIRECT_JUMP: 0
BRANCH_INDIRECT: 0
BRANCH_CONDITIONAL: 0.04701
BRANCH_DIRECT_CALL: 0
BRANCH_INDIRECT_CALL: 0
BRANCH_RETURN: 0

