
*** ChampSim Multicore Out-of-Order Simulator ***

Warmup Instructions: 10000000
Simulation Instructions: 100000000
Number of CPUs: 1
Off-chip DRAM Size: 4 GiB Channels: 1 Width: 64-bit Data Rate: 3200 MT/s

VirtualMemory physical capacity: 8588881920 num_ppages: 2096895
VirtualMemory page size: 4096 log2_page_size: 12

CPU 0 runs /datasets/cs240c-wi22-a00-public/data/Assignment2/cactusADM_734B.trace.xz
CPU 0 Bimodal branch predictor
Basic BTB sets: 1024 ways: 8 indirect buffer size: 4096 RAS size: 64
Initialize Hawkeye state
Heartbeat CPU 0 instructions: 10000002 cycles: 3647078 heartbeat IPC: 2.74192 cumulative IPC: 2.74192 (Simulation time: 0 hr 0 min 58 sec) 

Warmup complete CPU 0 instructions: 10000002 cycles: 3647078 (Simulation time: 0 hr 0 min 58 sec) 

Heartbeat CPU 0 instructions: 20000004 cycles: 13568595 heartbeat IPC: 1.00791 cumulative IPC: 1.00791 (Simulation time: 0 hr 2 min 44 sec) 
Heartbeat CPU 0 instructions: 30000001 cycles: 22812576 heartbeat IPC: 1.08178 cumulative IPC: 1.04354 (Simulation time: 0 hr 4 min 26 sec) 
Heartbeat CPU 0 instructions: 40000004 cycles: 31746451 heartbeat IPC: 1.11934 cumulative IPC: 1.06764 (Simulation time: 0 hr 6 min 7 sec) 
Heartbeat CPU 0 instructions: 50000000 cycles: 40780809 heartbeat IPC: 1.10689 cumulative IPC: 1.07719 (Simulation time: 0 hr 7 min 46 sec) 
Heartbeat CPU 0 instructions: 60000002 cycles: 47181571 heartbeat IPC: 1.56231 cumulative IPC: 1.14851 (Simulation time: 0 hr 9 min 10 sec) 
Heartbeat CPU 0 instructions: 70000003 cycles: 55998067 heartbeat IPC: 1.13424 cumulative IPC: 1.14611 (Simulation time: 0 hr 10 min 48 sec) 
Heartbeat CPU 0 instructions: 80000002 cycles: 64555254 heartbeat IPC: 1.16861 cumulative IPC: 1.14927 (Simulation time: 0 hr 12 min 24 sec) 
Heartbeat CPU 0 instructions: 90000000 cycles: 73252733 heartbeat IPC: 1.14976 cumulative IPC: 1.14933 (Simulation time: 0 hr 14 min 0 sec) 
Heartbeat CPU 0 instructions: 100000004 cycles: 79620368 heartbeat IPC: 1.57044 cumulative IPC: 1.18463 (Simulation time: 0 hr 15 min 23 sec) 
Heartbeat CPU 0 instructions: 110000001 cycles: 88287839 heartbeat IPC: 1.15374 cumulative IPC: 1.18146 (Simulation time: 0 hr 17 min 1 sec) 
Finished CPU 0 instructions: 100000004 cycles: 84640762 cumulative IPC: 1.18146 (Simulation time: 0 hr 17 min 1 sec) 

ChampSim completed all CPUs

Region of Interest Statistics

CPU 0 cumulative IPC: 1.18146 instructions: 100000004 cycles: 84640762
cpu0_DTLB TOTAL     ACCESS:   21690947  HIT:   19845630  MISS:    1845317
cpu0_DTLB LOAD      ACCESS:   17822745  HIT:   16565445  MISS:    1257300
cpu0_DTLB RFO       ACCESS:    3868202  HIT:    3280185  MISS:     588017
cpu0_DTLB PREFETCH  ACCESS:          0  HIT:          0  MISS:          0
cpu0_DTLB WRITEBACK ACCESS:          0  HIT:          0  MISS:          0
cpu0_DTLB TRANSLATION ACCESS:          0  HIT:          0  MISS:          0
cpu0_DTLB PREFETCH  REQUESTED:          0  ISSUED:          0  USEFUL:          0  USELESS:          0
cpu0_DTLB AVERAGE MISS LATENCY: 17.0765 cycles
cpu0_ITLB TOTAL     ACCESS:    1527975  HIT:    1527975  MISS:          0
cpu0_ITLB LOAD      ACCESS:    1527975  HIT:    1527975  MISS:          0
cpu0_ITLB RFO       ACCESS:          0  HIT:          0  MISS:          0
cpu0_ITLB PREFETCH  ACCESS:          0  HIT:          0  MISS:          0
cpu0_ITLB WRITEBACK ACCESS:          0  HIT:          0  MISS:          0
cpu0_ITLB TRANSLATION ACCESS:          0  HIT:          0  MISS:          0
cpu0_ITLB PREFETCH  REQUESTED:          0  ISSUED:          0  USEFUL:          0  USELESS:          0
cpu0_ITLB AVERAGE MISS LATENCY: -nan cycles
cpu0_L1I TOTAL     ACCESS:    7867423  HIT:    7867420  MISS:          3
cpu0_L1I LOAD      ACCESS:    7867423  HIT:    7867420  MISS:          3
cpu0_L1I RFO       ACCESS:          0  HIT:          0  MISS:          0
cpu0_L1I PREFETCH  ACCESS:          0  HIT:          0  MISS:          0
cpu0_L1I WRITEBACK ACCESS:          0  HIT:          0  MISS:          0
cpu0_L1I TRANSLATION ACCESS:          0  HIT:          0  MISS:          0
cpu0_L1I PREFETCH  REQUESTED:          0  ISSUED:          0  USEFUL:          0  USELESS:          0
cpu0_L1I AVERAGE MISS LATENCY: 823.667 cycles
cpu0_STLB TOTAL     ACCESS:    1845317  HIT:     890856  MISS:     954461
cpu0_STLB LOAD      ACCESS:    1257300  HIT:     640639  MISS:     616661
cpu0_STLB RFO       ACCESS:     588017  HIT:     250217  MISS:     337800
cpu0_STLB PREFETCH  ACCESS:          0  HIT:          0  MISS:          0
cpu0_STLB WRITEBACK ACCESS:          0  HIT:          0  MISS:          0
cpu0_STLB TRANSLATION ACCESS:          0  HIT:          0  MISS:          0
cpu0_STLB PREFETCH  REQUESTED:          0  ISSUED:          0  USEFUL:          0  USELESS:          0
cpu0_STLB AVERAGE MISS LATENCY: 15.4925 cycles
cpu0_L1D TOTAL     ACCESS:   37580340  HIT:   36260121  MISS:    1320219
cpu0_L1D LOAD      ACCESS:   25636649  HIT:   24585924  MISS:    1050725
cpu0_L1D RFO       ACCESS:   10990205  HIT:   10726057  MISS:     264148
cpu0_L1D PREFETCH  ACCESS:          0  HIT:          0  MISS:          0
cpu0_L1D WRITEBACK ACCESS:          0  HIT:          0  MISS:          0
cpu0_L1D TRANSLATION ACCESS:     953486  HIT:     948140  MISS:       5346
cpu0_L1D PREFETCH  REQUESTED:          0  ISSUED:          0  USEFUL:          0  USELESS:          0
cpu0_L1D AVERAGE MISS LATENCY: 284.038 cycles
cpu0_L2C TOTAL     ACCESS:    1588178  HIT:     691775  MISS:     896403
cpu0_L2C LOAD      ACCESS:    1050728  HIT:     418917  MISS:     631811
cpu0_L2C RFO       ACCESS:     264148  HIT:          0  MISS:     264148
cpu0_L2C PREFETCH  ACCESS:          0  HIT:          0  MISS:          0
cpu0_L2C WRITEBACK ACCESS:     267956  HIT:     267758  MISS:        198
cpu0_L2C TRANSLATION ACCESS:       5346  HIT:       5100  MISS:        246
cpu0_L2C PREFETCH  REQUESTED:          0  ISSUED:          0  USEFUL:          0  USELESS:          0
cpu0_L2C AVERAGE MISS LATENCY: 402.112 cycles
LLC TOTAL     ACCESS:    1162863  HIT:     344813  MISS:     818050
LLC LOAD      ACCESS:     631811  HIT:     150222  MISS:     481589
LLC RFO       ACCESS:     264148  HIT:      84507  MISS:     179641
LLC PREFETCH  ACCESS:          0  HIT:          0  MISS:          0
LLC WRITEBACK ACCESS:     266658  HIT:     110065  MISS:     156593
LLC TRANSLATION ACCESS:        246  HIT:         19  MISS:        227
LLC PREFETCH  REQUESTED:          0  ISSUED:          0  USEFUL:          0  USELESS:          0
LLC AVERAGE MISS LATENCY: 417.618 cycles
OPTgen accesses: 15000
OPTgen hits: 4828
OPTgen hit rate: 32.1867



DRAM Statistics
 CHANNEL 0
 RQ ROW_BUFFER_HIT:       6278  ROW_BUFFER_MISS:     655176
 DBUS AVG_CONGESTED_CYCLE:     3.9798
 WQ ROW_BUFFER_HIT:      17399  ROW_BUFFER_MISS:     222881  FULL:        642


CPU 0 Branch Prediction Accuracy: 97.7528% MPKI: 0.04677 Average ROB Occupancy at Mispredict: 283.833
Branch type MPKI
BRANCH_DIRECT_JUMP: 0
BRANCH_INDIRECT: 0
BRANCH_CONDITIONAL: 0.04677
BRANCH_DIRECT_CALL: 0
BRANCH_INDIRECT_CALL: 0
BRANCH_RETURN: 0

