
*** ChampSim Multicore Out-of-Order Simulator ***

Warmup Instructions: 10000000
Simulation Instructions: 100000000
Number of CPUs: 1
Off-chip DRAM Size: 4 GiB Channels: 1 Width: 64-bit Data Rate: 3200 MT/s

VirtualMemory physical capacity: 8588881920 num_ppages: 2096895
VirtualMemory page size: 4096 log2_page_size: 12

CPU 0 runs /datasets/cs240c-wi22-a00-public/data/Assignment2/gcc_13B.trace.xz
CPU 0 Bimodal branch predictor
Basic BTB sets: 1024 ways: 8 indirect buffer size: 4096 RAS size: 64
Initialize Hawkeye state
Heartbeat CPU 0 instructions: 10000003 cycles: 2971488 heartbeat IPC: 3.36532 cumulative IPC: 3.36532 (Simulation time: 0 hr 0 min 46 sec) 

Warmup complete CPU 0 instructions: 10000003 cycles: 2971488 (Simulation time: 0 hr 0 min 46 sec) 

Heartbeat CPU 0 instructions: 20000003 cycles: 50164651 heartbeat IPC: 0.211895 cumulative IPC: 0.211895 (Simulation time: 0 hr 2 min 55 sec) 
Heartbeat CPU 0 instructions: 30000002 cycles: 106001060 heartbeat IPC: 0.179095 cumulative IPC: 0.194119 (Simulation time: 0 hr 5 min 24 sec) 
Heartbeat CPU 0 instructions: 40000004 cycles: 145037746 heartbeat IPC: 0.256169 cumulative IPC: 0.211169 (Simulation time: 0 hr 7 min 42 sec) 
Heartbeat CPU 0 instructions: 50000002 cycles: 163099244 heartbeat IPC: 0.553664 cumulative IPC: 0.249801 (Simulation time: 0 hr 8 min 31 sec) 
Heartbeat CPU 0 instructions: 60000003 cycles: 181085393 heartbeat IPC: 0.555983 cumulative IPC: 0.280719 (Simulation time: 0 hr 9 min 20 sec) 
Heartbeat CPU 0 instructions: 70000000 cycles: 198025213 heartbeat IPC: 0.590325 cumulative IPC: 0.307608 (Simulation time: 0 hr 10 min 8 sec) 
Heartbeat CPU 0 instructions: 80000002 cycles: 215838711 heartbeat IPC: 0.561372 cumulative IPC: 0.328843 (Simulation time: 0 hr 10 min 55 sec) 
Heartbeat CPU 0 instructions: 90000000 cycles: 233953292 heartbeat IPC: 0.552041 cumulative IPC: 0.346348 (Simulation time: 0 hr 11 min 42 sec) 
Heartbeat CPU 0 instructions: 100000000 cycles: 251441298 heartbeat IPC: 0.57182 cumulative IPC: 0.362217 (Simulation time: 0 hr 12 min 29 sec) 
Heartbeat CPU 0 instructions: 110000002 cycles: 274853283 heartbeat IPC: 0.427132 cumulative IPC: 0.367807 (Simulation time: 0 hr 13 min 25 sec) 
Finished CPU 0 instructions: 100000004 cycles: 271881796 cumulative IPC: 0.367807 (Simulation time: 0 hr 13 min 25 sec) 

ChampSim completed all CPUs

Region of Interest Statistics

CPU 0 cumulative IPC: 0.367807 instructions: 100000004 cycles: 271881796
cpu0_DTLB TOTAL     ACCESS:   19476147  HIT:   19373959  MISS:     102188
cpu0_DTLB LOAD      ACCESS:   14036471  HIT:   13949255  MISS:      87216
cpu0_DTLB RFO       ACCESS:    5439676  HIT:    5424704  MISS:      14972
cpu0_DTLB PREFETCH  ACCESS:          0  HIT:          0  MISS:          0
cpu0_DTLB WRITEBACK ACCESS:          0  HIT:          0  MISS:          0
cpu0_DTLB TRANSLATION ACCESS:          0  HIT:          0  MISS:          0
cpu0_DTLB PREFETCH  REQUESTED:          0  ISSUED:          0  USEFUL:          0  USELESS:          0
cpu0_DTLB AVERAGE MISS LATENCY: 29.9632 cycles
cpu0_ITLB TOTAL     ACCESS:   10353020  HIT:   10352959  MISS:         61
cpu0_ITLB LOAD      ACCESS:   10353020  HIT:   10352959  MISS:         61
cpu0_ITLB RFO       ACCESS:          0  HIT:          0  MISS:          0
cpu0_ITLB PREFETCH  ACCESS:          0  HIT:          0  MISS:          0
cpu0_ITLB WRITEBACK ACCESS:          0  HIT:          0  MISS:          0
cpu0_ITLB TRANSLATION ACCESS:          0  HIT:          0  MISS:          0
cpu0_ITLB PREFETCH  REQUESTED:          0  ISSUED:          0  USEFUL:          0  USELESS:          0
cpu0_ITLB AVERAGE MISS LATENCY: 143.852 cycles
cpu0_L1I TOTAL     ACCESS:    6565303  HIT:    6564931  MISS:        372
cpu0_L1I LOAD      ACCESS:    6565303  HIT:    6564931  MISS:        372
cpu0_L1I RFO       ACCESS:          0  HIT:          0  MISS:          0
cpu0_L1I PREFETCH  ACCESS:          0  HIT:          0  MISS:          0
cpu0_L1I WRITEBACK ACCESS:          0  HIT:          0  MISS:          0
cpu0_L1I TRANSLATION ACCESS:          0  HIT:          0  MISS:          0
cpu0_L1I PREFETCH  REQUESTED:          0  ISSUED:          0  USEFUL:          0  USELESS:          0
cpu0_L1I AVERAGE MISS LATENCY: 170.933 cycles
cpu0_STLB TOTAL     ACCESS:     102249  HIT:      33349  MISS:      68900
cpu0_STLB LOAD      ACCESS:      87277  HIT:      30343  MISS:      56934
cpu0_STLB RFO       ACCESS:      14972  HIT:       3006  MISS:      11966
cpu0_STLB PREFETCH  ACCESS:          0  HIT:          0  MISS:          0
cpu0_STLB WRITEBACK ACCESS:          0  HIT:          0  MISS:          0
cpu0_STLB TRANSLATION ACCESS:          0  HIT:          0  MISS:          0
cpu0_STLB PREFETCH  REQUESTED:          0  ISSUED:          0  USEFUL:          0  USELESS:          0
cpu0_STLB AVERAGE MISS LATENCY: 31.2045 cycles
cpu0_L1D TOTAL     ACCESS:   26280740  HIT:   24736980  MISS:    1543760
cpu0_L1D LOAD      ACCESS:   12791780  HIT:   11524728  MISS:    1267052
cpu0_L1D RFO       ACCESS:   13420260  HIT:   13144624  MISS:     275636
cpu0_L1D PREFETCH  ACCESS:          0  HIT:          0  MISS:          0
cpu0_L1D WRITEBACK ACCESS:          0  HIT:          0  MISS:          0
cpu0_L1D TRANSLATION ACCESS:      68700  HIT:      67628  MISS:       1072
cpu0_L1D PREFETCH  REQUESTED:          0  ISSUED:          0  USEFUL:          0  USELESS:          0
cpu0_L1D AVERAGE MISS LATENCY: 269.444 cycles
cpu0_L2C TOTAL     ACCESS:    1956927  HIT:     461866  MISS:    1495061
cpu0_L2C LOAD      ACCESS:    1267424  HIT:      46441  MISS:    1220983
cpu0_L2C RFO       ACCESS:     275636  HIT:       1818  MISS:     273818
cpu0_L2C PREFETCH  ACCESS:          0  HIT:          0  MISS:          0
cpu0_L2C WRITEBACK ACCESS:     412795  HIT:     412744  MISS:         51
cpu0_L2C TRANSLATION ACCESS:       1072  HIT:        863  MISS:        209
cpu0_L2C PREFETCH  REQUESTED:          0  ISSUED:          0  USEFUL:          0  USELESS:          0
cpu0_L2C AVERAGE MISS LATENCY: 266.872 cycles
LLC TOTAL     ACCESS:    1905509  HIT:     253040  MISS:    1652469
LLC LOAD      ACCESS:    1220981  HIT:     136003  MISS:    1084978
LLC RFO       ACCESS:     273818  HIT:      20136  MISS:     253682
LLC PREFETCH  ACCESS:          0  HIT:          0  MISS:          0
LLC WRITEBACK ACCESS:     410501  HIT:      96809  MISS:     313692
LLC TRANSLATION ACCESS:        209  HIT:         92  MISS:        117
LLC PREFETCH  REQUESTED:          0  ISSUED:          0  USEFUL:          0  USELESS:          0
LLC AVERAGE MISS LATENCY: 222.452 cycles
OPTgen accesses: 30445
OPTgen hits: 1661
OPTgen hit rate: 5.45574



DRAM Statistics
 CHANNEL 0
 RQ ROW_BUFFER_HIT:     207815  ROW_BUFFER_MISS:    1130920
 DBUS AVG_CONGESTED_CYCLE:    3.94497
 WQ ROW_BUFFER_HIT:      42181  ROW_BUFFER_MISS:     357502  FULL:       7986


CPU 0 Branch Prediction Accuracy: 87.437% MPKI: 28.6507 Average ROB Occupancy at Mispredict: 19.9077
Branch type MPKI
BRANCH_DIRECT_JUMP: 0.0008
BRANCH_INDIRECT: 0.00403
BRANCH_CONDITIONAL: 28.6428
BRANCH_DIRECT_CALL: 0.00114
BRANCH_INDIRECT_CALL: 0.0008
BRANCH_RETURN: 0.00114

