
*** ChampSim Multicore Out-of-Order Simulator ***

Warmup Instructions: 10000000
Simulation Instructions: 100000000
Number of CPUs: 1
Off-chip DRAM Size: 4 GiB Channels: 1 Width: 64-bit Data Rate: 3200 MT/s

VirtualMemory physical capacity: 8588881920 num_ppages: 2096895
VirtualMemory page size: 4096 log2_page_size: 12

CPU 0 runs /datasets/cs240c-wi22-a00-public/data/Assignment2/soplex_205B.trace.xz
CPU 0 Bimodal branch predictor
Basic BTB sets: 1024 ways: 8 indirect buffer size: 4096 RAS size: 64
Initialize Hawkeye state
Heartbeat CPU 0 instructions: 10000003 cycles: 2865173 heartbeat IPC: 3.49019 cumulative IPC: 3.49019 (Simulation time: 0 hr 0 min 35 sec) 

Warmup complete CPU 0 instructions: 10000003 cycles: 2865173 (Simulation time: 0 hr 0 min 35 sec) 

Heartbeat CPU 0 instructions: 20000004 cycles: 46855597 heartbeat IPC: 0.227322 cumulative IPC: 0.227322 (Simulation time: 0 hr 3 min 35 sec) 
Heartbeat CPU 0 instructions: 30000004 cycles: 82390192 heartbeat IPC: 0.281416 cumulative IPC: 0.251493 (Simulation time: 0 hr 5 min 11 sec) 
Heartbeat CPU 0 instructions: 40000004 cycles: 109792420 heartbeat IPC: 0.364934 cumulative IPC: 0.280565 (Simulation time: 0 hr 6 min 45 sec) 
Heartbeat CPU 0 instructions: 50000001 cycles: 140330055 heartbeat IPC: 0.327465 cumulative IPC: 0.290983 (Simulation time: 0 hr 8 min 30 sec) 
Heartbeat CPU 0 instructions: 60000000 cycles: 167044712 heartbeat IPC: 0.374326 cumulative IPC: 0.304545 (Simulation time: 0 hr 9 min 59 sec) 
Heartbeat CPU 0 instructions: 70000000 cycles: 197327446 heartbeat IPC: 0.330221 cumulative IPC: 0.308543 (Simulation time: 0 hr 11 min 49 sec) 
Heartbeat CPU 0 instructions: 80000003 cycles: 224795577 heartbeat IPC: 0.364058 cumulative IPC: 0.315414 (Simulation time: 0 hr 13 min 18 sec) 
Heartbeat CPU 0 instructions: 90000000 cycles: 257200418 heartbeat IPC: 0.308596 cumulative IPC: 0.314545 (Simulation time: 0 hr 15 min 9 sec) 
Heartbeat CPU 0 instructions: 100000002 cycles: 284576078 heartbeat IPC: 0.365288 cumulative IPC: 0.319476 (Simulation time: 0 hr 16 min 39 sec) 
Heartbeat CPU 0 instructions: 110000000 cycles: 338347951 heartbeat IPC: 0.185971 cumulative IPC: 0.298078 (Simulation time: 0 hr 19 min 27 sec) 
Finished CPU 0 instructions: 100000002 cycles: 335482779 cumulative IPC: 0.298078 (Simulation time: 0 hr 19 min 27 sec) 

ChampSim completed all CPUs

Region of Interest Statistics

CPU 0 cumulative IPC: 0.298078 instructions: 100000002 cycles: 335482779
cpu0_DTLB TOTAL     ACCESS:   22256427  HIT:   21294295  MISS:     962132
cpu0_DTLB LOAD      ACCESS:   16517552  HIT:   15778119  MISS:     739433
cpu0_DTLB RFO       ACCESS:    5738875  HIT:    5516176  MISS:     222699
cpu0_DTLB PREFETCH  ACCESS:          0  HIT:          0  MISS:          0
cpu0_DTLB WRITEBACK ACCESS:          0  HIT:          0  MISS:          0
cpu0_DTLB TRANSLATION ACCESS:          0  HIT:          0  MISS:          0
cpu0_DTLB PREFETCH  REQUESTED:          0  ISSUED:          0  USEFUL:          0  USELESS:          0
cpu0_DTLB AVERAGE MISS LATENCY: 16.2352 cycles
cpu0_ITLB TOTAL     ACCESS:    8001736  HIT:    8001719  MISS:         17
cpu0_ITLB LOAD      ACCESS:    8001736  HIT:    8001719  MISS:         17
cpu0_ITLB RFO       ACCESS:          0  HIT:          0  MISS:          0
cpu0_ITLB PREFETCH  ACCESS:          0  HIT:          0  MISS:          0
cpu0_ITLB WRITEBACK ACCESS:          0  HIT:          0  MISS:          0
cpu0_ITLB TRANSLATION ACCESS:          0  HIT:          0  MISS:          0
cpu0_ITLB PREFETCH  REQUESTED:          0  ISSUED:          0  USEFUL:          0  USELESS:          0
cpu0_ITLB AVERAGE MISS LATENCY: 370.353 cycles
cpu0_L1I TOTAL     ACCESS:     823648  HIT:     822875  MISS:        773
cpu0_L1I LOAD      ACCESS:     823648  HIT:     822875  MISS:        773
cpu0_L1I RFO       ACCESS:          0  HIT:          0  MISS:          0
cpu0_L1I PREFETCH  ACCESS:          0  HIT:          0  MISS:          0
cpu0_L1I WRITEBACK ACCESS:          0  HIT:          0  MISS:          0
cpu0_L1I TRANSLATION ACCESS:          0  HIT:          0  MISS:          0
cpu0_L1I PREFETCH  REQUESTED:          0  ISSUED:          0  USEFUL:          0  USELESS:          0
cpu0_L1I AVERAGE MISS LATENCY: 329.661 cycles
cpu0_STLB TOTAL     ACCESS:     962149  HIT:     806584  MISS:     155565
cpu0_STLB LOAD      ACCESS:     739450  HIT:     594709  MISS:     144741
cpu0_STLB RFO       ACCESS:     222699  HIT:     211875  MISS:      10824
cpu0_STLB PREFETCH  ACCESS:          0  HIT:          0  MISS:          0
cpu0_STLB WRITEBACK ACCESS:          0  HIT:          0  MISS:          0
cpu0_STLB TRANSLATION ACCESS:          0  HIT:          0  MISS:          0
cpu0_STLB PREFETCH  REQUESTED:          0  ISSUED:          0  USEFUL:          0  USELESS:          0
cpu0_STLB AVERAGE MISS LATENCY: 43.8555 cycles
cpu0_L1D TOTAL     ACCESS:   19248999  HIT:   13458367  MISS:    5790632
cpu0_L1D LOAD      ACCESS:   12672949  HIT:    7838311  MISS:    4834638
cpu0_L1D RFO       ACCESS:    6424406  HIT:    5474053  MISS:     950353
cpu0_L1D PREFETCH  ACCESS:          0  HIT:          0  MISS:          0
cpu0_L1D WRITEBACK ACCESS:          0  HIT:          0  MISS:          0
cpu0_L1D TRANSLATION ACCESS:     151644  HIT:     146003  MISS:       5641
cpu0_L1D PREFETCH  REQUESTED:          0  ISSUED:          0  USEFUL:          0  USELESS:          0
cpu0_L1D AVERAGE MISS LATENCY: 224.401 cycles
cpu0_L2C TOTAL     ACCESS:    8361026  HIT:    3855042  MISS:    4505984
cpu0_L2C LOAD      ACCESS:    4834996  HIT:    1131222  MISS:    3703774
cpu0_L2C RFO       ACCESS:     950281  HIT:     148962  MISS:     801319
cpu0_L2C PREFETCH  ACCESS:          0  HIT:          0  MISS:          0
cpu0_L2C WRITEBACK ACCESS:    2570108  HIT:    2570036  MISS:         72
cpu0_L2C TRANSLATION ACCESS:       5641  HIT:       4822  MISS:        819
cpu0_L2C PREFETCH  REQUESTED:          0  ISSUED:          0  USEFUL:          0  USELESS:          0
cpu0_L2C AVERAGE MISS LATENCY: 274.084 cycles
LLC TOTAL     ACCESS:    6406232  HIT:    3232217  MISS:    3174015
LLC LOAD      ACCESS:    3703758  HIT:    1452770  MISS:    2250988
LLC RFO       ACCESS:     801315  HIT:     302347  MISS:     498968
LLC PREFETCH  ACCESS:          0  HIT:          0  MISS:          0
LLC WRITEBACK ACCESS:    1900340  HIT:    1476671  MISS:     423669
LLC TRANSLATION ACCESS:        819  HIT:        429  MISS:        390
LLC PREFETCH  REQUESTED:          0  ISSUED:          0  USEFUL:          0  USELESS:          0
LLC AVERAGE MISS LATENCY: 358.319 cycles
OPTgen accesses: 77376
OPTgen hits: 37494
OPTgen hit rate: 48.4569



DRAM Statistics
 CHANNEL 0
 RQ ROW_BUFFER_HIT:     284776  ROW_BUFFER_MISS:    2463029
 DBUS AVG_CONGESTED_CYCLE:    3.95509
 WQ ROW_BUFFER_HIT:      46649  ROW_BUFFER_MISS:     975760  FULL:     680040


CPU 0 Branch Prediction Accuracy: 93.3985% MPKI: 13.5305 Average ROB Occupancy at Mispredict: 47.616
Branch type MPKI
BRANCH_DIRECT_JUMP: 0.00081
BRANCH_INDIRECT: 0.00022
BRANCH_CONDITIONAL: 13.5274
BRANCH_DIRECT_CALL: 0.00058
BRANCH_INDIRECT_CALL: 0.00056
BRANCH_RETURN: 0.00094

