
*** ChampSim Multicore Out-of-Order Simulator ***

Warmup Instructions: 10000000
Simulation Instructions: 100000000
Number of CPUs: 1
Off-chip DRAM Size: 4 GiB Channels: 1 Width: 64-bit Data Rate: 3200 MT/s

VirtualMemory physical capacity: 8588881920 num_ppages: 2096895
VirtualMemory page size: 4096 log2_page_size: 12

CPU 0 runs /datasets/cs240c-wi22-a00-public/data/Assignment2/milc_360B.trace.xz
CPU 0 Bimodal branch predictor
Basic BTB sets: 1024 ways: 8 indirect buffer size: 4096 RAS size: 64
Initialize Hawkeye state
Heartbeat CPU 0 instructions: 10000001 cycles: 2500103 heartbeat IPC: 3.99984 cumulative IPC: 3.99984 (Simulation time: 0 hr 0 min 32 sec) 

Warmup complete CPU 0 instructions: 10000001 cycles: 2500103 (Simulation time: 0 hr 0 min 32 sec) 

Heartbeat CPU 0 instructions: 20000000 cycles: 20036086 heartbeat IPC: 0.570256 cumulative IPC: 0.570256 (Simulation time: 0 hr 2 min 27 sec) 
Heartbeat CPU 0 instructions: 30000004 cycles: 37522688 heartbeat IPC: 0.571867 cumulative IPC: 0.57106 (Simulation time: 0 hr 4 min 23 sec) 
Heartbeat CPU 0 instructions: 40000001 cycles: 55061427 heartbeat IPC: 0.570166 cumulative IPC: 0.570762 (Simulation time: 0 hr 6 min 17 sec) 
Heartbeat CPU 0 instructions: 50000001 cycles: 75969574 heartbeat IPC: 0.478282 cumulative IPC: 0.544444 (Simulation time: 0 hr 8 min 47 sec) 
Heartbeat CPU 0 instructions: 60000003 cycles: 95621751 heartbeat IPC: 0.50885 cumulative IPC: 0.536932 (Simulation time: 0 hr 10 min 37 sec) 
Heartbeat CPU 0 instructions: 70000000 cycles: 115421124 heartbeat IPC: 0.505066 cumulative IPC: 0.531345 (Simulation time: 0 hr 12 min 27 sec) 
Heartbeat CPU 0 instructions: 80000000 cycles: 132855949 heartbeat IPC: 0.573565 cumulative IPC: 0.536992 (Simulation time: 0 hr 14 min 13 sec) 
Heartbeat CPU 0 instructions: 90000000 cycles: 148961995 heartbeat IPC: 0.620885 cumulative IPC: 0.546217 (Simulation time: 0 hr 15 min 58 sec) 
Heartbeat CPU 0 instructions: 100000003 cycles: 165254186 heartbeat IPC: 0.613791 cumulative IPC: 0.552982 (Simulation time: 0 hr 17 min 38 sec) 
Heartbeat CPU 0 instructions: 110000003 cycles: 181580356 heartbeat IPC: 0.612514 cumulative IPC: 0.558409 (Simulation time: 0 hr 19 min 18 sec) 
Finished CPU 0 instructions: 100000002 cycles: 179080253 cumulative IPC: 0.558409 (Simulation time: 0 hr 19 min 18 sec) 

ChampSim completed all CPUs

Region of Interest Statistics

CPU 0 cumulative IPC: 0.558409 instructions: 100000002 cycles: 179080253
cpu0_DTLB TOTAL     ACCESS:   15526898  HIT:   15312159  MISS:     214739
cpu0_DTLB LOAD      ACCESS:    9083697  HIT:    8871171  MISS:     212526
cpu0_DTLB RFO       ACCESS:    6443201  HIT:    6440988  MISS:       2213
cpu0_DTLB PREFETCH  ACCESS:          0  HIT:          0  MISS:          0
cpu0_DTLB WRITEBACK ACCESS:          0  HIT:          0  MISS:          0
cpu0_DTLB TRANSLATION ACCESS:          0  HIT:          0  MISS:          0
cpu0_DTLB PREFETCH  REQUESTED:          0  ISSUED:          0  USEFUL:          0  USELESS:          0
cpu0_DTLB AVERAGE MISS LATENCY: 83.809 cycles
cpu0_ITLB TOTAL     ACCESS:    2730847  HIT:    2730844  MISS:          3
cpu0_ITLB LOAD      ACCESS:    2730847  HIT:    2730844  MISS:          3
cpu0_ITLB RFO       ACCESS:          0  HIT:          0  MISS:          0
cpu0_ITLB PREFETCH  ACCESS:          0  HIT:          0  MISS:          0
cpu0_ITLB WRITEBACK ACCESS:          0  HIT:          0  MISS:          0
cpu0_ITLB TRANSLATION ACCESS:          0  HIT:          0  MISS:          0
cpu0_ITLB PREFETCH  REQUESTED:          0  ISSUED:          0  USEFUL:          0  USELESS:          0
cpu0_ITLB AVERAGE MISS LATENCY: 437 cycles
cpu0_L1I TOTAL     ACCESS:    6939749  HIT:    6939721  MISS:         28
cpu0_L1I LOAD      ACCESS:    6939749  HIT:    6939721  MISS:         28
cpu0_L1I RFO       ACCESS:          0  HIT:          0  MISS:          0
cpu0_L1I PREFETCH  ACCESS:          0  HIT:          0  MISS:          0
cpu0_L1I WRITEBACK ACCESS:          0  HIT:          0  MISS:          0
cpu0_L1I TRANSLATION ACCESS:          0  HIT:          0  MISS:          0
cpu0_L1I PREFETCH  REQUESTED:          0  ISSUED:          0  USEFUL:          0  USELESS:          0
cpu0_L1I AVERAGE MISS LATENCY: 267.857 cycles
cpu0_STLB TOTAL     ACCESS:     214742  HIT:        119  MISS:     214623
cpu0_STLB LOAD      ACCESS:     212529  HIT:         95  MISS:     212434
cpu0_STLB RFO       ACCESS:       2213  HIT:         24  MISS:       2189
cpu0_STLB PREFETCH  ACCESS:          0  HIT:          0  MISS:          0
cpu0_STLB WRITEBACK ACCESS:          0  HIT:          0  MISS:          0
cpu0_STLB TRANSLATION ACCESS:          0  HIT:          0  MISS:          0
cpu0_STLB PREFETCH  REQUESTED:          0  ISSUED:          0  USEFUL:          0  USELESS:          0
cpu0_STLB AVERAGE MISS LATENCY: 74.8541 cycles
cpu0_L1D TOTAL     ACCESS:   24601760  HIT:   22505369  MISS:    2096391
cpu0_L1D LOAD      ACCESS:    6423958  HIT:    4467960  MISS:    1955998
cpu0_L1D RFO       ACCESS:   17963623  HIT:   17823614  MISS:     140009
cpu0_L1D PREFETCH  ACCESS:          0  HIT:          0  MISS:          0
cpu0_L1D WRITEBACK ACCESS:          0  HIT:          0  MISS:          0
cpu0_L1D TRANSLATION ACCESS:     214179  HIT:     213795  MISS:        384
cpu0_L1D PREFETCH  REQUESTED:          0  ISSUED:          0  USEFUL:          0  USELESS:          0
cpu0_L1D AVERAGE MISS LATENCY: 342.766 cycles
cpu0_L2C TOTAL     ACCESS:    2839086  HIT:     742662  MISS:    2096424
cpu0_L2C LOAD      ACCESS:    1956026  HIT:          0  MISS:    1956026
cpu0_L2C RFO       ACCESS:     140009  HIT:          0  MISS:     140009
cpu0_L2C PREFETCH  ACCESS:          0  HIT:          0  MISS:          0
cpu0_L2C WRITEBACK ACCESS:     742667  HIT:     742660  MISS:          7
cpu0_L2C TRANSLATION ACCESS:        384  HIT:          2  MISS:        382
cpu0_L2C PREFETCH  REQUESTED:          0  ISSUED:          0  USEFUL:          0  USELESS:          0
cpu0_L2C AVERAGE MISS LATENCY: 331.663 cycles
LLC TOTAL     ACCESS:    2839080  HIT:      79512  MISS:    2759568
LLC LOAD      ACCESS:    1956026  HIT:      11810  MISS:    1944216
LLC RFO       ACCESS:     140009  HIT:          0  MISS:     140009
LLC PREFETCH  ACCESS:          0  HIT:          0  MISS:          0
LLC WRITEBACK ACCESS:     742663  HIT:      67672  MISS:     674991
LLC TRANSLATION ACCESS:        382  HIT:         30  MISS:        352
LLC PREFETCH  REQUESTED:          0  ISSUED:          0  USEFUL:          0  USELESS:          0
LLC AVERAGE MISS LATENCY: 236.008 cycles
OPTgen accesses: 35230
OPTgen hits: 1568
OPTgen hit rate: 4.45075



DRAM Statistics
 CHANNEL 0
 RQ ROW_BUFFER_HIT:     359121  ROW_BUFFER_MISS:    1725444
 DBUS AVG_CONGESTED_CYCLE:    3.94695
 WQ ROW_BUFFER_HIT:      38657  ROW_BUFFER_MISS:     696756  FULL:          0


CPU 0 Branch Prediction Accuracy: 99.9991% MPKI: 0.00037 Average ROB Occupancy at Mispredict: 87.027
Branch type MPKI
BRANCH_DIRECT_JUMP: 4e-05
BRANCH_INDIRECT: 0
BRANCH_CONDITIONAL: 0.00015
BRANCH_DIRECT_CALL: 9e-05
BRANCH_INDIRECT_CALL: 0
BRANCH_RETURN: 9e-05

