
*** ChampSim Multicore Out-of-Order Simulator ***

Warmup Instructions: 10000000
Simulation Instructions: 100000000
Number of CPUs: 1
Off-chip DRAM Size: 4 GiB Channels: 1 Width: 64-bit Data Rate: 3200 MT/s

VirtualMemory physical capacity: 8588881920 num_ppages: 2096895
VirtualMemory page size: 4096 log2_page_size: 12

CPU 0 runs /datasets/cs240c-wi22-a00-public/data/Assignment2/omnetpp_340B.trace.xz
CPU 0 Bimodal branch predictor
Basic BTB sets: 1024 ways: 8 indirect buffer size: 4096 RAS size: 64
Initialize Hawkeye state
Heartbeat CPU 0 instructions: 10000002 cycles: 2500207 heartbeat IPC: 3.99967 cumulative IPC: 3.99967 (Simulation time: 0 hr 0 min 36 sec) 

Warmup complete CPU 0 instructions: 10000002 cycles: 2500207 (Simulation time: 0 hr 0 min 36 sec) 

Heartbeat CPU 0 instructions: 20000000 cycles: 27750507 heartbeat IPC: 0.396035 cumulative IPC: 0.396035 (Simulation time: 0 hr 1 min 58 sec) 
Heartbeat CPU 0 instructions: 30000002 cycles: 53026377 heartbeat IPC: 0.395634 cumulative IPC: 0.395834 (Simulation time: 0 hr 3 min 19 sec) 
Heartbeat CPU 0 instructions: 40000000 cycles: 77527687 heartbeat IPC: 0.408141 cumulative IPC: 0.399853 (Simulation time: 0 hr 4 min 37 sec) 
Heartbeat CPU 0 instructions: 50000002 cycles: 102669086 heartbeat IPC: 0.39775 cumulative IPC: 0.399326 (Simulation time: 0 hr 5 min 54 sec) 
Heartbeat CPU 0 instructions: 60000001 cycles: 128570645 heartbeat IPC: 0.386077 cumulative IPC: 0.396604 (Simulation time: 0 hr 7 min 19 sec) 
Heartbeat CPU 0 instructions: 70000003 cycles: 154545713 heartbeat IPC: 0.384985 cumulative IPC: 0.394619 (Simulation time: 0 hr 8 min 38 sec) 
Heartbeat CPU 0 instructions: 80000003 cycles: 180870284 heartbeat IPC: 0.379873 cumulative IPC: 0.392443 (Simulation time: 0 hr 10 min 4 sec) 
Heartbeat CPU 0 instructions: 90000000 cycles: 207118244 heartbeat IPC: 0.380982 cumulative IPC: 0.390972 (Simulation time: 0 hr 11 min 24 sec) 
Heartbeat CPU 0 instructions: 100000000 cycles: 233829842 heartbeat IPC: 0.374369 cumulative IPC: 0.389055 (Simulation time: 0 hr 12 min 53 sec) 
Heartbeat CPU 0 instructions: 110000000 cycles: 258872666 heartbeat IPC: 0.399316 cumulative IPC: 0.390058 (Simulation time: 0 hr 14 min 16 sec) 
Finished CPU 0 instructions: 100000000 cycles: 256372461 cumulative IPC: 0.390058 (Simulation time: 0 hr 14 min 16 sec) 

ChampSim completed all CPUs

Region of Interest Statistics

CPU 0 cumulative IPC: 0.390058 instructions: 100000000 cycles: 256372461
cpu0_DTLB TOTAL     ACCESS:   23839451  HIT:   21942345  MISS:    1897106
cpu0_DTLB LOAD      ACCESS:   13869728  HIT:   12288516  MISS:    1581212
cpu0_DTLB RFO       ACCESS:    9969723  HIT:    9653829  MISS:     315894
cpu0_DTLB PREFETCH  ACCESS:          0  HIT:          0  MISS:          0
cpu0_DTLB WRITEBACK ACCESS:          0  HIT:          0  MISS:          0
cpu0_DTLB TRANSLATION ACCESS:          0  HIT:          0  MISS:          0
cpu0_DTLB PREFETCH  REQUESTED:          0  ISSUED:          0  USEFUL:          0  USELESS:          0
cpu0_DTLB AVERAGE MISS LATENCY: 13.1616 cycles
cpu0_ITLB TOTAL     ACCESS:   11128621  HIT:   11093254  MISS:      35367
cpu0_ITLB LOAD      ACCESS:   11128621  HIT:   11093254  MISS:      35367
cpu0_ITLB RFO       ACCESS:          0  HIT:          0  MISS:          0
cpu0_ITLB PREFETCH  ACCESS:          0  HIT:          0  MISS:          0
cpu0_ITLB WRITEBACK ACCESS:          0  HIT:          0  MISS:          0
cpu0_ITLB TRANSLATION ACCESS:          0  HIT:          0  MISS:          0
cpu0_ITLB PREFETCH  REQUESTED:          0  ISSUED:          0  USEFUL:          0  USELESS:          0
cpu0_ITLB AVERAGE MISS LATENCY: 9.28026 cycles
cpu0_L1I TOTAL     ACCESS:    8347490  HIT:    8341135  MISS:       6355
cpu0_L1I LOAD      ACCESS:    8347490  HIT:    8341135  MISS:       6355
cpu0_L1I RFO       ACCESS:          0  HIT:          0  MISS:          0
cpu0_L1I PREFETCH  ACCESS:          0  HIT:          0  MISS:          0
cpu0_L1I WRITEBACK ACCESS:          0  HIT:          0  MISS:          0
cpu0_L1I TRANSLATION ACCESS:          0  HIT:          0  MISS:          0
cpu0_L1I PREFETCH  REQUESTED:          0  ISSUED:          0  USEFUL:          0  USELESS:          0
cpu0_L1I AVERAGE MISS LATENCY: 55.7816 cycles
cpu0_STLB TOTAL     ACCESS:    1932473  HIT:    1457280  MISS:     475193
cpu0_STLB LOAD      ACCESS:    1616579  HIT:    1262661  MISS:     353918
cpu0_STLB RFO       ACCESS:     315894  HIT:     194619  MISS:     121275
cpu0_STLB PREFETCH  ACCESS:          0  HIT:          0  MISS:          0
cpu0_STLB WRITEBACK ACCESS:          0  HIT:          0  MISS:          0
cpu0_STLB TRANSLATION ACCESS:          0  HIT:          0  MISS:          0
cpu0_STLB PREFETCH  REQUESTED:          0  ISSUED:          0  USEFUL:          0  USELESS:          0
cpu0_STLB AVERAGE MISS LATENCY: 16.1647 cycles
cpu0_L1D TOTAL     ACCESS:   31443718  HIT:   28945812  MISS:    2497906
cpu0_L1D LOAD      ACCESS:   15709491  HIT:   13526566  MISS:    2182925
cpu0_L1D RFO       ACCESS:   15293814  HIT:   14983339  MISS:     310475
cpu0_L1D PREFETCH  ACCESS:          0  HIT:          0  MISS:          0
cpu0_L1D WRITEBACK ACCESS:          0  HIT:          0  MISS:          0
cpu0_L1D TRANSLATION ACCESS:     440413  HIT:     435907  MISS:       4506
cpu0_L1D PREFETCH  REQUESTED:          0  ISSUED:          0  USEFUL:          0  USELESS:          0
cpu0_L1D AVERAGE MISS LATENCY: 143.671 cycles
cpu0_L2C TOTAL     ACCESS:    3581345  HIT:    1431340  MISS:    2150005
cpu0_L2C LOAD      ACCESS:    2189241  HIT:     330932  MISS:    1858309
cpu0_L2C RFO       ACCESS:     310475  HIT:      22152  MISS:     288323
cpu0_L2C PREFETCH  ACCESS:          0  HIT:          0  MISS:          0
cpu0_L2C WRITEBACK ACCESS:    1077123  HIT:    1074848  MISS:       2275
cpu0_L2C TRANSLATION ACCESS:       4506  HIT:       3408  MISS:       1098
cpu0_L2C PREFETCH  REQUESTED:          0  ISSUED:          0  USEFUL:          0  USELESS:          0
cpu0_L2C AVERAGE MISS LATENCY: 154.114 cycles
LLC TOTAL     ACCESS:    3079059  HIT:    1053465  MISS:    2025594
LLC LOAD      ACCESS:    1858308  HIT:     425459  MISS:    1432849
LLC RFO       ACCESS:     288323  HIT:      76496  MISS:     211827
LLC PREFETCH  ACCESS:          0  HIT:          0  MISS:          0
LLC WRITEBACK ACCESS:     931330  HIT:     550832  MISS:     380498
LLC TRANSLATION ACCESS:       1098  HIT:        678  MISS:        420
LLC PREFETCH  REQUESTED:          0  ISSUED:          0  USEFUL:          0  USELESS:          0
LLC AVERAGE MISS LATENCY: 141.313 cycles
OPTgen accesses: 36913
OPTgen hits: 14735
OPTgen hit rate: 39.9182



DRAM Statistics
 CHANNEL 0
 RQ ROW_BUFFER_HIT:      90439  ROW_BUFFER_MISS:    1554545
 DBUS AVG_CONGESTED_CYCLE:    3.92298
 WQ ROW_BUFFER_HIT:     173409  ROW_BUFFER_MISS:     528374  FULL:          0


CPU 0 Branch Prediction Accuracy: 94.4212% MPKI: 13.4017 Average ROB Occupancy at Mispredict: 52.2765
Branch type MPKI
BRANCH_DIRECT_JUMP: 0.00017
BRANCH_INDIRECT: 0.04543
BRANCH_CONDITIONAL: 13.2857
BRANCH_DIRECT_CALL: 8e-05
BRANCH_INDIRECT_CALL: 0.04734
BRANCH_RETURN: 0.02301

