
*** ChampSim Multicore Out-of-Order Simulator ***

Warmup Instructions: 10000000
Simulation Instructions: 100000000
Number of CPUs: 1
Off-chip DRAM Size: 4 GiB Channels: 1 Width: 64-bit Data Rate: 3200 MT/s

VirtualMemory physical capacity: 8588881920 num_ppages: 2096895
VirtualMemory page size: 4096 log2_page_size: 12

CPU 0 runs /datasets/cs240c-wi22-a00-public/data/Assignment2/mcf_250B.trace.xz
CPU 0 Bimodal branch predictor
Basic BTB sets: 1024 ways: 8 indirect buffer size: 4096 RAS size: 64
Initialize Hawkeye state
Heartbeat CPU 0 instructions: 10000004 cycles: 3834272 heartbeat IPC: 2.60806 cumulative IPC: 2.60806 (Simulation time: 0 hr 0 min 56 sec) 

Warmup complete CPU 0 instructions: 10000004 cycles: 3834272 (Simulation time: 0 hr 0 min 56 sec) 

Heartbeat CPU 0 instructions: 20000000 cycles: 147383502 heartbeat IPC: 0.0696625 cumulative IPC: 0.0696625 (Simulation time: 0 hr 5 min 10 sec) 
Heartbeat CPU 0 instructions: 30000000 cycles: 285574761 heartbeat IPC: 0.0723635 cumulative IPC: 0.0709873 (Simulation time: 0 hr 9 min 13 sec) 
Heartbeat CPU 0 instructions: 40000000 cycles: 434305396 heartbeat IPC: 0.0672356 cumulative IPC: 0.0696911 (Simulation time: 0 hr 13 min 33 sec) 
Heartbeat CPU 0 instructions: 50000000 cycles: 575623506 heartbeat IPC: 0.0707623 cumulative IPC: 0.0699558 (Simulation time: 0 hr 17 min 47 sec) 
Heartbeat CPU 0 instructions: 60000000 cycles: 716440869 heartbeat IPC: 0.071014 cumulative IPC: 0.0701649 (Simulation time: 0 hr 22 min 0 sec) 
Heartbeat CPU 0 instructions: 70000000 cycles: 850201246 heartbeat IPC: 0.0747606 cumulative IPC: 0.0708912 (Simulation time: 0 hr 26 min 4 sec) 
Heartbeat CPU 0 instructions: 80000000 cycles: 995262616 heartbeat IPC: 0.0689363 cumulative IPC: 0.0706052 (Simulation time: 0 hr 30 min 27 sec) 
Heartbeat CPU 0 instructions: 90000000 cycles: 1121235611 heartbeat IPC: 0.0793821 cumulative IPC: 0.0715947 (Simulation time: 0 hr 34 min 21 sec) 
Heartbeat CPU 0 instructions: 100000000 cycles: 1259829346 heartbeat IPC: 0.0721533 cumulative IPC: 0.0716563 (Simulation time: 0 hr 38 min 26 sec) 
Heartbeat CPU 0 instructions: 110000000 cycles: 1403178308 heartbeat IPC: 0.0697598 cumulative IPC: 0.0714621 (Simulation time: 0 hr 42 min 39 sec) 
Finished CPU 0 instructions: 100000000 cycles: 1399344047 cumulative IPC: 0.0714621 (Simulation time: 0 hr 42 min 39 sec) 

ChampSim completed all CPUs

Region of Interest Statistics

CPU 0 cumulative IPC: 0.0714621 instructions: 100000000 cycles: 1399344047
cpu0_DTLB TOTAL     ACCESS:   20766285  HIT:    2976004  MISS:   17790281
cpu0_DTLB LOAD      ACCESS:   20271087  HIT:    2536699  MISS:   17734388
cpu0_DTLB RFO       ACCESS:     495198  HIT:     439305  MISS:      55893
cpu0_DTLB PREFETCH  ACCESS:          0  HIT:          0  MISS:          0
cpu0_DTLB WRITEBACK ACCESS:          0  HIT:          0  MISS:          0
cpu0_DTLB TRANSLATION ACCESS:          0  HIT:          0  MISS:          0
cpu0_DTLB PREFETCH  REQUESTED:          0  ISSUED:          0  USEFUL:          0  USELESS:          0
cpu0_DTLB AVERAGE MISS LATENCY: 11.942 cycles
cpu0_ITLB TOTAL     ACCESS:   11315062  HIT:   11315062  MISS:          0
cpu0_ITLB LOAD      ACCESS:   11315062  HIT:   11315062  MISS:          0
cpu0_ITLB RFO       ACCESS:          0  HIT:          0  MISS:          0
cpu0_ITLB PREFETCH  ACCESS:          0  HIT:          0  MISS:          0
cpu0_ITLB WRITEBACK ACCESS:          0  HIT:          0  MISS:          0
cpu0_ITLB TRANSLATION ACCESS:          0  HIT:          0  MISS:          0
cpu0_ITLB PREFETCH  REQUESTED:          0  ISSUED:          0  USEFUL:          0  USELESS:          0
cpu0_ITLB AVERAGE MISS LATENCY: -nan cycles
cpu0_L1I TOTAL     ACCESS:          4  HIT:          4  MISS:          0
cpu0_L1I LOAD      ACCESS:          4  HIT:          4  MISS:          0
cpu0_L1I RFO       ACCESS:          0  HIT:          0  MISS:          0
cpu0_L1I PREFETCH  ACCESS:          0  HIT:          0  MISS:          0
cpu0_L1I WRITEBACK ACCESS:          0  HIT:          0  MISS:          0
cpu0_L1I TRANSLATION ACCESS:          0  HIT:          0  MISS:          0
cpu0_L1I PREFETCH  REQUESTED:          0  ISSUED:          0  USEFUL:          0  USELESS:          0
cpu0_L1I AVERAGE MISS LATENCY: -nan cycles
cpu0_STLB TOTAL     ACCESS:   17790281  HIT:   17413149  MISS:     377132
cpu0_STLB LOAD      ACCESS:   17734388  HIT:   17359392  MISS:     374996
cpu0_STLB RFO       ACCESS:      55893  HIT:      53757  MISS:       2136
cpu0_STLB PREFETCH  ACCESS:          0  HIT:          0  MISS:          0
cpu0_STLB WRITEBACK ACCESS:          0  HIT:          0  MISS:          0
cpu0_STLB TRANSLATION ACCESS:          0  HIT:          0  MISS:          0
cpu0_STLB PREFETCH  REQUESTED:          0  ISSUED:          0  USEFUL:          0  USELESS:          0
cpu0_STLB AVERAGE MISS LATENCY: 138.752 cycles
cpu0_L1D TOTAL     ACCESS:   21383844  HIT:    3439967  MISS:   17943877
cpu0_L1D LOAD      ACCESS:   20343203  HIT:    2559259  MISS:   17783944
cpu0_L1D RFO       ACCESS:     664709  HIT:     633050  MISS:      31659
cpu0_L1D PREFETCH  ACCESS:          0  HIT:          0  MISS:          0
cpu0_L1D WRITEBACK ACCESS:          0  HIT:          0  MISS:          0
cpu0_L1D TRANSLATION ACCESS:     375932  HIT:     247658  MISS:     128274
cpu0_L1D PREFETCH  REQUESTED:          0  ISSUED:          0  USEFUL:          0  USELESS:          0
cpu0_L1D AVERAGE MISS LATENCY: 230.395 cycles
cpu0_L2C TOTAL     ACCESS:   18302504  HIT:    5792215  MISS:   12510289
cpu0_L2C LOAD      ACCESS:   17783916  HIT:    5386517  MISS:   12397399
cpu0_L2C RFO       ACCESS:      31658  HIT:       9145  MISS:      22513
cpu0_L2C PREFETCH  ACCESS:          0  HIT:          0  MISS:          0
cpu0_L2C WRITEBACK ACCESS:     358656  HIT:     358654  MISS:          2
cpu0_L2C TRANSLATION ACCESS:     128274  HIT:      37899  MISS:      90375
cpu0_L2C PREFETCH  REQUESTED:          0  ISSUED:          0  USEFUL:          0  USELESS:          0
cpu0_L2C AVERAGE MISS LATENCY: 314.673 cycles
LLC TOTAL     ACCESS:   12800242  HIT:    5770883  MISS:    7029359
LLC LOAD      ACCESS:   12397399  HIT:    5572438  MISS:    6824961
LLC RFO       ACCESS:      22513  HIT:      10937  MISS:      11576
LLC PREFETCH  ACCESS:          0  HIT:          0  MISS:          0
LLC WRITEBACK ACCESS:     289955  HIT:     176076  MISS:     113879
LLC TRANSLATION ACCESS:      90375  HIT:      11432  MISS:      78943
LLC PREFETCH  REQUESTED:          0  ISSUED:          0  USEFUL:          0  USELESS:          0
LLC AVERAGE MISS LATENCY: 522.655 cycles
OPTgen accesses: 215308
OPTgen hits: 78098
OPTgen hit rate: 36.2727



DRAM Statistics
 CHANNEL 0
 RQ ROW_BUFFER_HIT:      41747  ROW_BUFFER_MISS:    6873539
 DBUS AVG_CONGESTED_CYCLE:    3.96096
 WQ ROW_BUFFER_HIT:      12167  ROW_BUFFER_MISS:     197030  FULL:          0


CPU 0 Branch Prediction Accuracy: 91.6559% MPKI: 25.5287 Average ROB Occupancy at Mispredict: 24.477
Branch type MPKI
BRANCH_DIRECT_JUMP: 2e-05
BRANCH_INDIRECT: 0
BRANCH_CONDITIONAL: 25.5287
BRANCH_DIRECT_CALL: 0
BRANCH_INDIRECT_CALL: 0
BRANCH_RETURN: 0

