
*** ChampSim Multicore Out-of-Order Simulator ***

Warmup Instructions: 10000000
Simulation Instructions: 100000000
Number of CPUs: 1
Off-chip DRAM Size: 4 GiB Channels: 1 Width: 64-bit Data Rate: 3200 MT/s

VirtualMemory physical capacity: 8588881920 num_ppages: 2096895
VirtualMemory page size: 4096 log2_page_size: 12

CPU 0 runs /datasets/cs240c-wi22-a00-public/data/Assignment2/omnetpp_17B.trace.xz
CPU 0 Bimodal branch predictor
Basic BTB sets: 1024 ways: 8 indirect buffer size: 4096 RAS size: 64
Initialize Hawkeye state
Heartbeat CPU 0 instructions: 10000002 cycles: 2500125 heartbeat IPC: 3.9998 cumulative IPC: 3.9998 (Simulation time: 0 hr 0 min 23 sec) 

Warmup complete CPU 0 instructions: 10000002 cycles: 2500125 (Simulation time: 0 hr 0 min 23 sec) 

Heartbeat CPU 0 instructions: 20000003 cycles: 8449918 heartbeat IPC: 1.68073 cumulative IPC: 1.68073 (Simulation time: 0 hr 0 min 53 sec) 
Heartbeat CPU 0 instructions: 30000000 cycles: 17907905 heartbeat IPC: 1.05731 cumulative IPC: 1.29805 (Simulation time: 0 hr 1 min 45 sec) 
Heartbeat CPU 0 instructions: 40000001 cycles: 27915927 heartbeat IPC: 0.999199 cumulative IPC: 1.18037 (Simulation time: 0 hr 2 min 43 sec) 
Heartbeat CPU 0 instructions: 50000001 cycles: 34844399 heartbeat IPC: 1.44332 cumulative IPC: 1.23669 (Simulation time: 0 hr 3 min 21 sec) 
Heartbeat CPU 0 instructions: 60000001 cycles: 42335754 heartbeat IPC: 1.33487 cumulative IPC: 1.25516 (Simulation time: 0 hr 4 min 1 sec) 
Heartbeat CPU 0 instructions: 70000000 cycles: 51978229 heartbeat IPC: 1.03708 cumulative IPC: 1.21266 (Simulation time: 0 hr 4 min 57 sec) 
Heartbeat CPU 0 instructions: 80000002 cycles: 61711106 heartbeat IPC: 1.02745 cumulative IPC: 1.18221 (Simulation time: 0 hr 5 min 53 sec) 
Heartbeat CPU 0 instructions: 90000003 cycles: 71318433 heartbeat IPC: 1.04087 cumulative IPC: 1.16248 (Simulation time: 0 hr 6 min 48 sec) 
Heartbeat CPU 0 instructions: 100000002 cycles: 76662363 heartbeat IPC: 1.87128 cumulative IPC: 1.21356 (Simulation time: 0 hr 7 min 15 sec) 
Heartbeat CPU 0 instructions: 110000001 cycles: 86108874 heartbeat IPC: 1.05859 cumulative IPC: 1.19605 (Simulation time: 0 hr 8 min 11 sec) 
Finished CPU 0 instructions: 100000004 cycles: 83608756 cumulative IPC: 1.19605 (Simulation time: 0 hr 8 min 11 sec) 

ChampSim completed all CPUs

Region of Interest Statistics

CPU 0 cumulative IPC: 1.19605 instructions: 100000004 cycles: 83608756
cpu0_DTLB TOTAL     ACCESS:   10197703  HIT:    9132886  MISS:    1064817
cpu0_DTLB LOAD      ACCESS:    8260190  HIT:    7197253  MISS:    1062937
cpu0_DTLB RFO       ACCESS:    1937513  HIT:    1935633  MISS:       1880
cpu0_DTLB PREFETCH  ACCESS:          0  HIT:          0  MISS:          0
cpu0_DTLB WRITEBACK ACCESS:          0  HIT:          0  MISS:          0
cpu0_DTLB TRANSLATION ACCESS:          0  HIT:          0  MISS:          0
cpu0_DTLB PREFETCH  REQUESTED:          0  ISSUED:          0  USEFUL:          0  USELESS:          0
cpu0_DTLB AVERAGE MISS LATENCY: 21.2601 cycles
cpu0_ITLB TOTAL     ACCESS:    8332700  HIT:    8330643  MISS:       2057
cpu0_ITLB LOAD      ACCESS:    8332700  HIT:    8330643  MISS:       2057
cpu0_ITLB RFO       ACCESS:          0  HIT:          0  MISS:          0
cpu0_ITLB PREFETCH  ACCESS:          0  HIT:          0  MISS:          0
cpu0_ITLB WRITEBACK ACCESS:          0  HIT:          0  MISS:          0
cpu0_ITLB TRANSLATION ACCESS:          0  HIT:          0  MISS:          0
cpu0_ITLB PREFETCH  REQUESTED:          0  ISSUED:          0  USEFUL:          0  USELESS:          0
cpu0_ITLB AVERAGE MISS LATENCY: 15.6315 cycles
cpu0_L1I TOTAL     ACCESS:    1054833  HIT:    1050503  MISS:       4330
cpu0_L1I LOAD      ACCESS:    1054833  HIT:    1050503  MISS:       4330
cpu0_L1I RFO       ACCESS:          0  HIT:          0  MISS:          0
cpu0_L1I PREFETCH  ACCESS:          0  HIT:          0  MISS:          0
cpu0_L1I WRITEBACK ACCESS:          0  HIT:          0  MISS:          0
cpu0_L1I TRANSLATION ACCESS:          0  HIT:          0  MISS:          0
cpu0_L1I PREFETCH  REQUESTED:          0  ISSUED:          0  USEFUL:          0  USELESS:          0
cpu0_L1I AVERAGE MISS LATENCY: 94.3811 cycles
cpu0_STLB TOTAL     ACCESS:    1066874  HIT:      12759  MISS:    1054115
cpu0_STLB LOAD      ACCESS:    1064994  HIT:      11395  MISS:    1053599
cpu0_STLB RFO       ACCESS:       1880  HIT:       1364  MISS:        516
cpu0_STLB PREFETCH  ACCESS:          0  HIT:          0  MISS:          0
cpu0_STLB WRITEBACK ACCESS:          0  HIT:          0  MISS:          0
cpu0_STLB TRANSLATION ACCESS:          0  HIT:          0  MISS:          0
cpu0_STLB PREFETCH  REQUESTED:          0  ISSUED:          0  USEFUL:          0  USELESS:          0
cpu0_STLB AVERAGE MISS LATENCY: 11.9223 cycles
cpu0_L1D TOTAL     ACCESS:   10178789  HIT:    8424343  MISS:    1754446
cpu0_L1D LOAD      ACCESS:    6371091  HIT:    4630802  MISS:    1740289
cpu0_L1D RFO       ACCESS:    3337697  HIT:    3324639  MISS:      13058
cpu0_L1D PREFETCH  ACCESS:          0  HIT:          0  MISS:          0
cpu0_L1D WRITEBACK ACCESS:          0  HIT:          0  MISS:          0
cpu0_L1D TRANSLATION ACCESS:     470001  HIT:     468902  MISS:       1099
cpu0_L1D PREFETCH  REQUESTED:          0  ISSUED:          0  USEFUL:          0  USELESS:          0
cpu0_L1D AVERAGE MISS LATENCY: 217.154 cycles
cpu0_L2C TOTAL     ACCESS:    1775593  HIT:      23316  MISS:    1752277
cpu0_L2C LOAD      ACCESS:    1744619  HIT:       5922  MISS:    1738697
cpu0_L2C RFO       ACCESS:      13058  HIT:        137  MISS:      12921
cpu0_L2C PREFETCH  ACCESS:          0  HIT:          0  MISS:          0
cpu0_L2C WRITEBACK ACCESS:      16817  HIT:      16817  MISS:          0
cpu0_L2C TRANSLATION ACCESS:       1099  HIT:        440  MISS:        659
cpu0_L2C PREFETCH  REQUESTED:          0  ISSUED:          0  USEFUL:          0  USELESS:          0
cpu0_L2C AVERAGE MISS LATENCY: 206.087 cycles
LLC TOTAL     ACCESS:    1768990  HIT:    1027787  MISS:     741203
LLC LOAD      ACCESS:    1738697  HIT:    1016249  MISS:     722448
LLC RFO       ACCESS:      12921  HIT:       1713  MISS:      11208
LLC PREFETCH  ACCESS:          0  HIT:          0  MISS:          0
LLC WRITEBACK ACCESS:      16713  HIT:       9546  MISS:       7167
LLC TRANSLATION ACCESS:        659  HIT:        279  MISS:        380
LLC PREFETCH  REQUESTED:          0  ISSUED:          0  USEFUL:          0  USELESS:          0
LLC AVERAGE MISS LATENCY: 437.551 cycles
OPTgen accesses: 29542
OPTgen hits: 24322
OPTgen hit rate: 82.3302



DRAM Statistics
 CHANNEL 0
 RQ ROW_BUFFER_HIT:      15074  ROW_BUFFER_MISS:     718737
 DBUS AVG_CONGESTED_CYCLE:    3.98209
 WQ ROW_BUFFER_HIT:       1249  ROW_BUFFER_MISS:      11410  FULL:          0


CPU 0 Branch Prediction Accuracy: 97.6159% MPKI: 7.87238 Average ROB Occupancy at Mispredict: 63.4005
Branch type MPKI
BRANCH_DIRECT_JUMP: 0.00032
BRANCH_INDIRECT: 0.08474
BRANCH_CONDITIONAL: 7.75802
BRANCH_DIRECT_CALL: 0.00068
BRANCH_INDIRECT_CALL: 0.00292
BRANCH_RETURN: 0.0257

