
*** ChampSim Multicore Out-of-Order Simulator ***

Warmup Instructions: 10000000
Simulation Instructions: 100000000
Number of CPUs: 1
Off-chip DRAM Size: 4 GiB Channels: 1 Width: 64-bit Data Rate: 3200 MT/s

VirtualMemory physical capacity: 8588881920 num_ppages: 2096895
VirtualMemory page size: 4096 log2_page_size: 12

CPU 0 runs /datasets/cs240c-wi22-a00-public/data/Assignment2/libquantum_964B.trace.xz
CPU 0 Bimodal branch predictor
Basic BTB sets: 1024 ways: 8 indirect buffer size: 4096 RAS size: 64
Initialize Hawkeye state
Heartbeat CPU 0 instructions: 10000001 cycles: 2500058 heartbeat IPC: 3.99991 cumulative IPC: 3.99991 (Simulation time: 0 hr 0 min 27 sec) 

Warmup complete CPU 0 instructions: 10000001 cycles: 2500058 (Simulation time: 0 hr 0 min 27 sec) 

Heartbeat CPU 0 instructions: 20000002 cycles: 18503600 heartbeat IPC: 0.624862 cumulative IPC: 0.624862 (Simulation time: 0 hr 1 min 31 sec) 
Heartbeat CPU 0 instructions: 30000004 cycles: 42087191 heartbeat IPC: 0.424024 cumulative IPC: 0.505215 (Simulation time: 0 hr 3 min 45 sec) 
Heartbeat CPU 0 instructions: 40000001 cycles: 64791970 heartbeat IPC: 0.440436 cumulative IPC: 0.481603 (Simulation time: 0 hr 6 min 16 sec) 
Heartbeat CPU 0 instructions: 50000003 cycles: 71171767 heartbeat IPC: 1.56745 cumulative IPC: 0.582482 (Simulation time: 0 hr 7 min 16 sec) 
Heartbeat CPU 0 instructions: 60000004 cycles: 82272419 heartbeat IPC: 0.900848 cumulative IPC: 0.626784 (Simulation time: 0 hr 8 min 12 sec) 
Heartbeat CPU 0 instructions: 70000003 cycles: 97763152 heartbeat IPC: 0.645547 cumulative IPC: 0.629835 (Simulation time: 0 hr 9 min 10 sec) 
Heartbeat CPU 0 instructions: 80000002 cycles: 124007569 heartbeat IPC: 0.381033 cumulative IPC: 0.576096 (Simulation time: 0 hr 11 min 34 sec) 
Heartbeat CPU 0 instructions: 90000001 cycles: 142030166 heartbeat IPC: 0.554859 cumulative IPC: 0.573353 (Simulation time: 0 hr 13 min 33 sec) 
Heartbeat CPU 0 instructions: 100000001 cycles: 148187852 heartbeat IPC: 1.62399 cumulative IPC: 0.617759 (Simulation time: 0 hr 14 min 30 sec) 
Heartbeat CPU 0 instructions: 110000003 cycles: 171714127 heartbeat IPC: 0.425057 cumulative IPC: 0.590967 (Simulation time: 0 hr 17 min 5 sec) 
Finished CPU 0 instructions: 100000002 cycles: 169214069 cumulative IPC: 0.590967 (Simulation time: 0 hr 17 min 5 sec) 

ChampSim completed all CPUs

Region of Interest Statistics

CPU 0 cumulative IPC: 0.590967 instructions: 100000002 cycles: 169214069
cpu0_DTLB TOTAL     ACCESS:    9084094  HIT:    9031096  MISS:      52998
cpu0_DTLB LOAD      ACCESS:    6210290  HIT:    6179100  MISS:      31190
cpu0_DTLB RFO       ACCESS:    2873804  HIT:    2851996  MISS:      21808
cpu0_DTLB PREFETCH  ACCESS:          0  HIT:          0  MISS:          0
cpu0_DTLB WRITEBACK ACCESS:          0  HIT:          0  MISS:          0
cpu0_DTLB TRANSLATION ACCESS:          0  HIT:          0  MISS:          0
cpu0_DTLB PREFETCH  REQUESTED:          0  ISSUED:          0  USEFUL:          0  USELESS:          0
cpu0_DTLB AVERAGE MISS LATENCY: 38.6863 cycles
cpu0_ITLB TOTAL     ACCESS:    1926288  HIT:    1926287  MISS:          1
cpu0_ITLB LOAD      ACCESS:    1926288  HIT:    1926287  MISS:          1
cpu0_ITLB RFO       ACCESS:          0  HIT:          0  MISS:          0
cpu0_ITLB PREFETCH  ACCESS:          0  HIT:          0  MISS:          0
cpu0_ITLB WRITEBACK ACCESS:          0  HIT:          0  MISS:          0
cpu0_ITLB TRANSLATION ACCESS:          0  HIT:          0  MISS:          0
cpu0_ITLB PREFETCH  REQUESTED:          0  ISSUED:          0  USEFUL:          0  USELESS:          0
cpu0_ITLB AVERAGE MISS LATENCY: 368 cycles
cpu0_L1I TOTAL     ACCESS:         11  HIT:          7  MISS:          4
cpu0_L1I LOAD      ACCESS:         11  HIT:          7  MISS:          4
cpu0_L1I RFO       ACCESS:          0  HIT:          0  MISS:          0
cpu0_L1I PREFETCH  ACCESS:          0  HIT:          0  MISS:          0
cpu0_L1I WRITEBACK ACCESS:          0  HIT:          0  MISS:          0
cpu0_L1I TRANSLATION ACCESS:          0  HIT:          0  MISS:          0
cpu0_L1I PREFETCH  REQUESTED:          0  ISSUED:          0  USEFUL:          0  USELESS:          0
cpu0_L1I AVERAGE MISS LATENCY: 194 cycles
cpu0_STLB TOTAL     ACCESS:      52999  HIT:          0  MISS:      52999
cpu0_STLB LOAD      ACCESS:      31191  HIT:          0  MISS:      31191
cpu0_STLB RFO       ACCESS:      21808  HIT:          0  MISS:      21808
cpu0_STLB PREFETCH  ACCESS:          0  HIT:          0  MISS:          0
cpu0_STLB WRITEBACK ACCESS:          0  HIT:          0  MISS:          0
cpu0_STLB TRANSLATION ACCESS:          0  HIT:          0  MISS:          0
cpu0_STLB PREFETCH  REQUESTED:          0  ISSUED:          0  USEFUL:          0  USELESS:          0
cpu0_STLB AVERAGE MISS LATENCY: 29.6925 cycles
cpu0_L1D TOTAL     ACCESS:    9383082  HIT:    5992640  MISS:    3390442
cpu0_L1D LOAD      ACCESS:    3614353  HIT:     223972  MISS:    3390381
cpu0_L1D RFO       ACCESS:    5715731  HIT:    5715707  MISS:         24
cpu0_L1D PREFETCH  ACCESS:          0  HIT:          0  MISS:          0
cpu0_L1D WRITEBACK ACCESS:          0  HIT:          0  MISS:          0
cpu0_L1D TRANSLATION ACCESS:      52998  HIT:      52961  MISS:         37
cpu0_L1D PREFETCH  REQUESTED:          0  ISSUED:          0  USEFUL:          0  USELESS:          0
cpu0_L1D AVERAGE MISS LATENCY: 424.528 cycles
cpu0_L2C TOTAL     ACCESS:    4919982  HIT:    1529536  MISS:    3390446
cpu0_L2C LOAD      ACCESS:    3390385  HIT:          0  MISS:    3390385
cpu0_L2C RFO       ACCESS:         24  HIT:          0  MISS:         24
cpu0_L2C PREFETCH  ACCESS:          0  HIT:          0  MISS:          0
cpu0_L2C WRITEBACK ACCESS:    1529536  HIT:    1529536  MISS:          0
cpu0_L2C TRANSLATION ACCESS:         37  HIT:          0  MISS:         37
cpu0_L2C PREFETCH  REQUESTED:          0  ISSUED:          0  USEFUL:          0  USELESS:          0
cpu0_L2C AVERAGE MISS LATENCY: 413.526 cycles
LLC TOTAL     ACCESS:    4913671  HIT:     281681  MISS:    4631990
LLC LOAD      ACCESS:    3390385  HIT:     150798  MISS:    3239587
LLC RFO       ACCESS:         24  HIT:         16  MISS:          8
LLC PREFETCH  ACCESS:          0  HIT:          0  MISS:          0
LLC WRITEBACK ACCESS:    1523225  HIT:     130861  MISS:    1392364
LLC TRANSLATION ACCESS:         37  HIT:          6  MISS:         31
LLC PREFETCH  REQUESTED:          0  ISSUED:          0  USEFUL:          0  USELESS:          0
LLC AVERAGE MISS LATENCY: 286.888 cycles
OPTgen accesses: 57310
OPTgen hits: 1251
OPTgen hit rate: 2.18287



DRAM Statistics
 CHANNEL 0
 RQ ROW_BUFFER_HIT:    1763563  ROW_BUFFER_MISS:    1475986
 DBUS AVG_CONGESTED_CYCLE:     3.9007
 WQ ROW_BUFFER_HIT:     263926  ROW_BUFFER_MISS:    1223195  FULL:     323336


CPU 0 Branch Prediction Accuracy: 98.7463% MPKI: 2.70066 Average ROB Occupancy at Mispredict: 44.7795
Branch type MPKI
BRANCH_DIRECT_JUMP: 1e-05
BRANCH_INDIRECT: 0
BRANCH_CONDITIONAL: 2.70053
BRANCH_DIRECT_CALL: 6e-05
BRANCH_INDIRECT_CALL: 0
BRANCH_RETURN: 6e-05

