
*** ChampSim Multicore Out-of-Order Simulator ***

Warmup Instructions: 10000000
Simulation Instructions: 100000000
Number of CPUs: 1
Off-chip DRAM Size: 4 GiB Channels: 1 Width: 64-bit Data Rate: 3200 MT/s

VirtualMemory physical capacity: 8588881920 num_ppages: 2096895
VirtualMemory page size: 4096 log2_page_size: 12

CPU 0 runs /datasets/cs240c-wi22-a00-public/data/Assignment2/cactusADM_1495B.trace.xz
CPU 0 Bimodal branch predictor
Basic BTB sets: 1024 ways: 8 indirect buffer size: 4096 RAS size: 64
Initialize Hawkeye state
Heartbeat CPU 0 instructions: 10000001 cycles: 3702086 heartbeat IPC: 2.70118 cumulative IPC: 2.70118 (Simulation time: 0 hr 1 min 0 sec) 

Warmup complete CPU 0 instructions: 10000001 cycles: 3702086 (Simulation time: 0 hr 1 min 0 sec) 

Heartbeat CPU 0 instructions: 20000001 cycles: 11375904 heartbeat IPC: 1.30313 cumulative IPC: 1.30313 (Simulation time: 0 hr 2 min 35 sec) 
Heartbeat CPU 0 instructions: 30000003 cycles: 20228601 heartbeat IPC: 1.1296 cumulative IPC: 1.21018 (Simulation time: 0 hr 4 min 17 sec) 
Heartbeat CPU 0 instructions: 40000003 cycles: 28971241 heartbeat IPC: 1.14382 cumulative IPC: 1.18722 (Simulation time: 0 hr 5 min 57 sec) 
Heartbeat CPU 0 instructions: 50000000 cycles: 37428726 heartbeat IPC: 1.18238 cumulative IPC: 1.18601 (Simulation time: 0 hr 7 min 35 sec) 
Heartbeat CPU 0 instructions: 60000000 cycles: 44424472 heartbeat IPC: 1.42944 cumulative IPC: 1.22783 (Simulation time: 0 hr 9 min 4 sec) 
Heartbeat CPU 0 instructions: 70000000 cycles: 52076664 heartbeat IPC: 1.30682 cumulative IPC: 1.24032 (Simulation time: 0 hr 10 min 40 sec) 
Heartbeat CPU 0 instructions: 80000001 cycles: 60532819 heartbeat IPC: 1.18257 cumulative IPC: 1.23173 (Simulation time: 0 hr 12 min 17 sec) 
Heartbeat CPU 0 instructions: 90000002 cycles: 68962367 heartbeat IPC: 1.1863 cumulative IPC: 1.22586 (Simulation time: 0 hr 13 min 55 sec) 
Heartbeat CPU 0 instructions: 100000003 cycles: 77616906 heartbeat IPC: 1.15546 cumulative IPC: 1.21762 (Simulation time: 0 hr 15 min 36 sec) 
Heartbeat CPU 0 instructions: 110000004 cycles: 83638995 heartbeat IPC: 1.66055 cumulative IPC: 1.25099 (Simulation time: 0 hr 17 min 1 sec) 
Finished CPU 0 instructions: 100000003 cycles: 79936909 cumulative IPC: 1.25099 (Simulation time: 0 hr 17 min 1 sec) 

ChampSim completed all CPUs

Region of Interest Statistics

CPU 0 cumulative IPC: 1.25099 instructions: 100000003 cycles: 79936909
cpu0_DTLB TOTAL     ACCESS:   21503188  HIT:   19731165  MISS:    1772023
cpu0_DTLB LOAD      ACCESS:   17692748  HIT:   16483929  MISS:    1208819
cpu0_DTLB RFO       ACCESS:    3810440  HIT:    3247236  MISS:     563204
cpu0_DTLB PREFETCH  ACCESS:          0  HIT:          0  MISS:          0
cpu0_DTLB WRITEBACK ACCESS:          0  HIT:          0  MISS:          0
cpu0_DTLB TRANSLATION ACCESS:          0  HIT:          0  MISS:          0
cpu0_DTLB PREFETCH  REQUESTED:          0  ISSUED:          0  USEFUL:          0  USELESS:          0
cpu0_DTLB AVERAGE MISS LATENCY: 15.867 cycles
cpu0_ITLB TOTAL     ACCESS:    1612612  HIT:    1612612  MISS:          0
cpu0_ITLB LOAD      ACCESS:    1612612  HIT:    1612612  MISS:          0
cpu0_ITLB RFO       ACCESS:          0  HIT:          0  MISS:          0
cpu0_ITLB PREFETCH  ACCESS:          0  HIT:          0  MISS:          0
cpu0_ITLB WRITEBACK ACCESS:          0  HIT:          0  MISS:          0
cpu0_ITLB TRANSLATION ACCESS:          0  HIT:          0  MISS:          0
cpu0_ITLB PREFETCH  REQUESTED:          0  ISSUED:          0  USEFUL:          0  USELESS:          0
cpu0_ITLB AVERAGE MISS LATENCY: -nan cycles
cpu0_L1I TOTAL     ACCESS:    8439006  HIT:    8439006  MISS:          0
cpu0_L1I LOAD      ACCESS:    8439006  HIT:    8439006  MISS:          0
cpu0_L1I RFO       ACCESS:          0  HIT:          0  MISS:          0
cpu0_L1I PREFETCH  ACCESS:          0  HIT:          0  MISS:          0
cpu0_L1I WRITEBACK ACCESS:          0  HIT:          0  MISS:          0
cpu0_L1I TRANSLATION ACCESS:          0  HIT:          0  MISS:          0
cpu0_L1I PREFETCH  REQUESTED:          0  ISSUED:          0  USEFUL:          0  USELESS:          0
cpu0_L1I AVERAGE MISS LATENCY: -nan cycles
cpu0_STLB TOTAL     ACCESS:    1772023  HIT:     904508  MISS:     867515
cpu0_STLB LOAD      ACCESS:    1208819  HIT:     647577  MISS:     561242
cpu0_STLB RFO       ACCESS:     563204  HIT:     256931  MISS:     306273
cpu0_STLB PREFETCH  ACCESS:          0  HIT:          0  MISS:          0
cpu0_STLB WRITEBACK ACCESS:          0  HIT:          0  MISS:          0
cpu0_STLB TRANSLATION ACCESS:          0  HIT:          0  MISS:          0
cpu0_STLB PREFETCH  REQUESTED:          0  ISSUED:          0  USEFUL:          0  USELESS:          0
cpu0_STLB AVERAGE MISS LATENCY: 13.9045 cycles
cpu0_L1D TOTAL     ACCESS:   37515331  HIT:   36227091  MISS:    1288240
cpu0_L1D LOAD      ACCESS:   25691548  HIT:   24655481  MISS:    1036067
cpu0_L1D RFO       ACCESS:   10956964  HIT:   10711732  MISS:     245232
cpu0_L1D PREFETCH  ACCESS:          0  HIT:          0  MISS:          0
cpu0_L1D WRITEBACK ACCESS:          0  HIT:          0  MISS:          0
cpu0_L1D TRANSLATION ACCESS:     866819  HIT:     859878  MISS:       6941
cpu0_L1D PREFETCH  REQUESTED:          0  ISSUED:          0  USEFUL:          0  USELESS:          0
cpu0_L1D AVERAGE MISS LATENCY: 254.947 cycles
cpu0_L2C TOTAL     ACCESS:    1537022  HIT:     676861  MISS:     860161
cpu0_L2C LOAD      ACCESS:    1036067  HIT:     421647  MISS:     614420
cpu0_L2C RFO       ACCESS:     245232  HIT:          0  MISS:     245232
cpu0_L2C PREFETCH  ACCESS:          0  HIT:          0  MISS:          0
cpu0_L2C WRITEBACK ACCESS:     248782  HIT:     248594  MISS:        188
cpu0_L2C TRANSLATION ACCESS:       6941  HIT:       6620  MISS:        321
cpu0_L2C PREFETCH  REQUESTED:          0  ISSUED:          0  USEFUL:          0  USELESS:          0
cpu0_L2C AVERAGE MISS LATENCY: 365.33 cycles
LLC TOTAL     ACCESS:    1105581  HIT:     335461  MISS:     770120
LLC LOAD      ACCESS:     614420  HIT:     159916  MISS:     454504
LLC RFO       ACCESS:     245232  HIT:      81272  MISS:     163960
LLC PREFETCH  ACCESS:          0  HIT:          0  MISS:          0
LLC WRITEBACK ACCESS:     245608  HIT:      94253  MISS:     151355
LLC TRANSLATION ACCESS:        321  HIT:         20  MISS:        301
LLC PREFETCH  REQUESTED:          0  ISSUED:          0  USEFUL:          0  USELESS:          0
LLC AVERAGE MISS LATENCY: 384.592 cycles
OPTgen accesses: 15004
OPTgen hits: 4666
OPTgen hit rate: 31.0984



DRAM Statistics
 CHANNEL 0
 RQ ROW_BUFFER_HIT:       5506  ROW_BUFFER_MISS:     613248
 DBUS AVG_CONGESTED_CYCLE:    3.97477
 WQ ROW_BUFFER_HIT:      18537  ROW_BUFFER_MISS:     200038  FULL:        254


CPU 0 Branch Prediction Accuracy: 97.8411% MPKI: 0.04284 Average ROB Occupancy at Mispredict: 285.264
Branch type MPKI
BRANCH_DIRECT_JUMP: 0
BRANCH_INDIRECT: 0
BRANCH_CONDITIONAL: 0.04284
BRANCH_DIRECT_CALL: 0
BRANCH_INDIRECT_CALL: 0
BRANCH_RETURN: 0

