
*** ChampSim Multicore Out-of-Order Simulator ***

Warmup Instructions: 10000000
Simulation Instructions: 100000000
Number of CPUs: 1
Off-chip DRAM Size: 4 GiB Channels: 1 Width: 64-bit Data Rate: 3200 MT/s

VirtualMemory physical capacity: 8588881920 num_ppages: 2096895
VirtualMemory page size: 4096 log2_page_size: 12

CPU 0 runs /datasets/cs240c-wi22-a00-public/data/Assignment2/sphinx3_883B.trace.xz
CPU 0 Bimodal branch predictor
Basic BTB sets: 1024 ways: 8 indirect buffer size: 4096 RAS size: 64
Initialize Hawkeye state
Heartbeat CPU 0 instructions: 10000003 cycles: 2628876 heartbeat IPC: 3.80391 cumulative IPC: 3.80391 (Simulation time: 0 hr 0 min 31 sec) 

Warmup complete CPU 0 instructions: 10000003 cycles: 2628876 (Simulation time: 0 hr 0 min 31 sec) 

Heartbeat CPU 0 instructions: 20000000 cycles: 15530122 heartbeat IPC: 0.775119 cumulative IPC: 0.775119 (Simulation time: 0 hr 1 min 39 sec) 
Heartbeat CPU 0 instructions: 30000001 cycles: 27835934 heartbeat IPC: 0.812624 cumulative IPC: 0.793428 (Simulation time: 0 hr 2 min 38 sec) 
Heartbeat CPU 0 instructions: 40000004 cycles: 39657880 heartbeat IPC: 0.845885 cumulative IPC: 0.810176 (Simulation time: 0 hr 3 min 33 sec) 
Heartbeat CPU 0 instructions: 50000003 cycles: 50857009 heartbeat IPC: 0.892927 cumulative IPC: 0.829391 (Simulation time: 0 hr 4 min 27 sec) 
Heartbeat CPU 0 instructions: 60000000 cycles: 62324410 heartbeat IPC: 0.872037 cumulative IPC: 0.837584 (Simulation time: 0 hr 5 min 27 sec) 
Heartbeat CPU 0 instructions: 70000000 cycles: 72147691 heartbeat IPC: 1.01799 cumulative IPC: 0.863076 (Simulation time: 0 hr 6 min 18 sec) 
Heartbeat CPU 0 instructions: 80000000 cycles: 82693074 heartbeat IPC: 0.948282 cumulative IPC: 0.874298 (Simulation time: 0 hr 7 min 10 sec) 
Heartbeat CPU 0 instructions: 90000002 cycles: 92160850 heartbeat IPC: 1.05621 cumulative IPC: 0.893535 (Simulation time: 0 hr 7 min 58 sec) 
Heartbeat CPU 0 instructions: 100000003 cycles: 100741865 heartbeat IPC: 1.16536 cumulative IPC: 0.91731 (Simulation time: 0 hr 8 min 42 sec) 
Heartbeat CPU 0 instructions: 110000003 cycles: 111413001 heartbeat IPC: 0.937107 cumulative IPC: 0.919252 (Simulation time: 0 hr 9 min 31 sec) 
Finished CPU 0 instructions: 100000000 cycles: 108784125 cumulative IPC: 0.919252 (Simulation time: 0 hr 9 min 31 sec) 

ChampSim completed all CPUs

Region of Interest Statistics

CPU 0 cumulative IPC: 0.919252 instructions: 100000000 cycles: 108784125
cpu0_DTLB TOTAL     ACCESS:   16819316  HIT:   16659345  MISS:     159971
cpu0_DTLB LOAD      ACCESS:   15451535  HIT:   15299809  MISS:     151726
cpu0_DTLB RFO       ACCESS:    1367781  HIT:    1359536  MISS:       8245
cpu0_DTLB PREFETCH  ACCESS:          0  HIT:          0  MISS:          0
cpu0_DTLB WRITEBACK ACCESS:          0  HIT:          0  MISS:          0
cpu0_DTLB TRANSLATION ACCESS:          0  HIT:          0  MISS:          0
cpu0_DTLB PREFETCH  REQUESTED:          0  ISSUED:          0  USEFUL:          0  USELESS:          0
cpu0_DTLB AVERAGE MISS LATENCY: 12.8557 cycles
cpu0_ITLB TOTAL     ACCESS:    9414966  HIT:    9414901  MISS:         65
cpu0_ITLB LOAD      ACCESS:    9414966  HIT:    9414901  MISS:         65
cpu0_ITLB RFO       ACCESS:          0  HIT:          0  MISS:          0
cpu0_ITLB PREFETCH  ACCESS:          0  HIT:          0  MISS:          0
cpu0_ITLB WRITEBACK ACCESS:          0  HIT:          0  MISS:          0
cpu0_ITLB TRANSLATION ACCESS:          0  HIT:          0  MISS:          0
cpu0_ITLB PREFETCH  REQUESTED:          0  ISSUED:          0  USEFUL:          0  USELESS:          0
cpu0_ITLB AVERAGE MISS LATENCY: 148.385 cycles
cpu0_L1I TOTAL     ACCESS:     192687  HIT:     191307  MISS:       1380
cpu0_L1I LOAD      ACCESS:     192687  HIT:     191307  MISS:       1380
cpu0_L1I RFO       ACCESS:          0  HIT:          0  MISS:          0
cpu0_L1I PREFETCH  ACCESS:          0  HIT:          0  MISS:          0
cpu0_L1I WRITEBACK ACCESS:          0  HIT:          0  MISS:          0
cpu0_L1I TRANSLATION ACCESS:          0  HIT:          0  MISS:          0
cpu0_L1I PREFETCH  REQUESTED:          0  ISSUED:          0  USEFUL:          0  USELESS:          0
cpu0_L1I AVERAGE MISS LATENCY: 189.191 cycles
cpu0_STLB TOTAL     ACCESS:     160036  HIT:      99138  MISS:      60898
cpu0_STLB LOAD      ACCESS:     151791  HIT:      92115  MISS:      59676
cpu0_STLB RFO       ACCESS:       8245  HIT:       7023  MISS:       1222
cpu0_STLB PREFETCH  ACCESS:          0  HIT:          0  MISS:          0
cpu0_STLB WRITEBACK ACCESS:          0  HIT:          0  MISS:          0
cpu0_STLB TRANSLATION ACCESS:          0  HIT:          0  MISS:          0
cpu0_STLB PREFETCH  REQUESTED:          0  ISSUED:          0  USEFUL:          0  USELESS:          0
cpu0_STLB AVERAGE MISS LATENCY: 10.1509 cycles
cpu0_L1D TOTAL     ACCESS:   12392566  HIT:   10643226  MISS:    1749340
cpu0_L1D LOAD      ACCESS:   10130934  HIT:    8496524  MISS:    1634410
cpu0_L1D RFO       ACCESS:    2203480  HIT:    2089345  MISS:     114135
cpu0_L1D PREFETCH  ACCESS:          0  HIT:          0  MISS:          0
cpu0_L1D WRITEBACK ACCESS:          0  HIT:          0  MISS:          0
cpu0_L1D TRANSLATION ACCESS:      58152  HIT:      57357  MISS:        795
cpu0_L1D PREFETCH  REQUESTED:          0  ISSUED:          0  USEFUL:          0  USELESS:          0
cpu0_L1D AVERAGE MISS LATENCY: 128.659 cycles
cpu0_L2C TOTAL     ACCESS:    1908311  HIT:     517756  MISS:    1390555
cpu0_L2C LOAD      ACCESS:    1635787  HIT:     346994  MISS:    1288793
cpu0_L2C RFO       ACCESS:     114130  HIT:      12988  MISS:     101142
cpu0_L2C PREFETCH  ACCESS:          0  HIT:          0  MISS:          0
cpu0_L2C WRITEBACK ACCESS:     157599  HIT:     157302  MISS:        297
cpu0_L2C TRANSLATION ACCESS:        795  HIT:        472  MISS:        323
cpu0_L2C PREFETCH  REQUESTED:          0  ISSUED:          0  USEFUL:          0  USELESS:          0
cpu0_L2C AVERAGE MISS LATENCY: 148.136 cycles
LLC TOTAL     ACCESS:    1524799  HIT:     644352  MISS:     880447
LLC LOAD      ACCESS:    1288793  HIT:     487846  MISS:     800947
LLC RFO       ACCESS:     101142  HIT:      55968  MISS:      45174
LLC PREFETCH  ACCESS:          0  HIT:          0  MISS:          0
LLC WRITEBACK ACCESS:     134541  HIT:     100282  MISS:      34259
LLC TRANSLATION ACCESS:        323  HIT:        256  MISS:         67
LLC PREFETCH  REQUESTED:          0  ISSUED:          0  USEFUL:          0  USELESS:          0
LLC AVERAGE MISS LATENCY: 200.801 cycles
OPTgen accesses: 23985
OPTgen hits: 11753
OPTgen hit rate: 49.0015



DRAM Statistics
 CHANNEL 0
 RQ ROW_BUFFER_HIT:      90298  ROW_BUFFER_MISS:     755286
 DBUS AVG_CONGESTED_CYCLE:    3.85741
 WQ ROW_BUFFER_HIT:      12297  ROW_BUFFER_MISS:      42780  FULL:        467


CPU 0 Branch Prediction Accuracy: 91.645% MPKI: 7.87682 Average ROB Occupancy at Mispredict: 160.979
Branch type MPKI
BRANCH_DIRECT_JUMP: 0.0017
BRANCH_INDIRECT: 0.00111
BRANCH_CONDITIONAL: 7.87013
BRANCH_DIRECT_CALL: 0.00166
BRANCH_INDIRECT_CALL: 0.0005
BRANCH_RETURN: 0.00172

