
*** ChampSim Multicore Out-of-Order Simulator ***

Warmup Instructions: 10000000
Simulation Instructions: 100000000
Number of CPUs: 1
Off-chip DRAM Size: 4 GiB Channels: 1 Width: 64-bit Data Rate: 3200 MT/s

VirtualMemory physical capacity: 8588881920 num_ppages: 2096895
VirtualMemory page size: 4096 log2_page_size: 12

CPU 0 runs /datasets/cs240c-wi22-a00-public/data/Assignment2/leslie3d_1116B.trace.xz
CPU 0 Bimodal branch predictor
Basic BTB sets: 1024 ways: 8 indirect buffer size: 4096 RAS size: 64
Initialize Hawkeye state
Heartbeat CPU 0 instructions: 10000000 cycles: 3692422 heartbeat IPC: 2.70825 cumulative IPC: 2.70825 (Simulation time: 0 hr 0 min 54 sec) 

Warmup complete CPU 0 instructions: 10000005 cycles: 3692423 (Simulation time: 0 hr 0 min 54 sec) 

Heartbeat CPU 0 instructions: 20000000 cycles: 12720126 heartbeat IPC: 1.1077 cumulative IPC: 1.1077 (Simulation time: 0 hr 2 min 28 sec) 
Heartbeat CPU 0 instructions: 30000004 cycles: 21782125 heartbeat IPC: 1.10351 cumulative IPC: 1.1056 (Simulation time: 0 hr 4 min 2 sec) 
Heartbeat CPU 0 instructions: 40000003 cycles: 33536175 heartbeat IPC: 0.85077 cumulative IPC: 1.00524 (Simulation time: 0 hr 5 min 50 sec) 
Heartbeat CPU 0 instructions: 50000000 cycles: 54889027 heartbeat IPC: 0.468321 cumulative IPC: 0.781302 (Simulation time: 0 hr 8 min 22 sec) 
Heartbeat CPU 0 instructions: 60000001 cycles: 109452755 heartbeat IPC: 0.183272 cumulative IPC: 0.472767 (Simulation time: 0 hr 13 min 45 sec) 
Heartbeat CPU 0 instructions: 70000000 cycles: 123715411 heartbeat IPC: 0.701132 cumulative IPC: 0.499904 (Simulation time: 0 hr 15 min 42 sec) 
Heartbeat CPU 0 instructions: 80000001 cycles: 136729145 heartbeat IPC: 0.768419 cumulative IPC: 0.52617 (Simulation time: 0 hr 17 min 36 sec) 
Heartbeat CPU 0 instructions: 90000004 cycles: 149892487 heartbeat IPC: 0.759686 cumulative IPC: 0.547195 (Simulation time: 0 hr 19 min 28 sec) 
Heartbeat CPU 0 instructions: 100000002 cycles: 163201329 heartbeat IPC: 0.75138 cumulative IPC: 0.564232 (Simulation time: 0 hr 21 min 20 sec) 
Heartbeat CPU 0 instructions: 110000001 cycles: 180425133 heartbeat IPC: 0.580592 cumulative IPC: 0.565826 (Simulation time: 0 hr 23 min 25 sec) 
Finished CPU 0 instructions: 100000001 cycles: 176732711 cumulative IPC: 0.565826 (Simulation time: 0 hr 23 min 25 sec) 

ChampSim completed all CPUs

Region of Interest Statistics

CPU 0 cumulative IPC: 0.565826 instructions: 100000001 cycles: 176732711
cpu0_DTLB TOTAL     ACCESS:   25734724  HIT:   25668976  MISS:      65748
cpu0_DTLB LOAD      ACCESS:   21114731  HIT:   21063024  MISS:      51707
cpu0_DTLB RFO       ACCESS:    4619993  HIT:    4605952  MISS:      14041
cpu0_DTLB PREFETCH  ACCESS:          0  HIT:          0  MISS:          0
cpu0_DTLB WRITEBACK ACCESS:          0  HIT:          0  MISS:          0
cpu0_DTLB TRANSLATION ACCESS:          0  HIT:          0  MISS:          0
cpu0_DTLB PREFETCH  REQUESTED:          0  ISSUED:          0  USEFUL:          0  USELESS:          0
cpu0_DTLB AVERAGE MISS LATENCY: 86.7679 cycles
cpu0_ITLB TOTAL     ACCESS:    2863302  HIT:    2863284  MISS:         18
cpu0_ITLB LOAD      ACCESS:    2863302  HIT:    2863284  MISS:         18
cpu0_ITLB RFO       ACCESS:          0  HIT:          0  MISS:          0
cpu0_ITLB PREFETCH  ACCESS:          0  HIT:          0  MISS:          0
cpu0_ITLB WRITEBACK ACCESS:          0  HIT:          0  MISS:          0
cpu0_ITLB TRANSLATION ACCESS:          0  HIT:          0  MISS:          0
cpu0_ITLB PREFETCH  REQUESTED:          0  ISSUED:          0  USEFUL:          0  USELESS:          0
cpu0_ITLB AVERAGE MISS LATENCY: 358.389 cycles
cpu0_L1I TOTAL     ACCESS:    1776845  HIT:    1776373  MISS:        472
cpu0_L1I LOAD      ACCESS:    1776845  HIT:    1776373  MISS:        472
cpu0_L1I RFO       ACCESS:          0  HIT:          0  MISS:          0
cpu0_L1I PREFETCH  ACCESS:          0  HIT:          0  MISS:          0
cpu0_L1I WRITEBACK ACCESS:          0  HIT:          0  MISS:          0
cpu0_L1I TRANSLATION ACCESS:          0  HIT:          0  MISS:          0
cpu0_L1I PREFETCH  REQUESTED:          0  ISSUED:          0  USEFUL:          0  USELESS:          0
cpu0_L1I AVERAGE MISS LATENCY: 373.943 cycles
cpu0_STLB TOTAL     ACCESS:      65766  HIT:      34142  MISS:      31624
cpu0_STLB LOAD      ACCESS:      51725  HIT:      28259  MISS:      23466
cpu0_STLB RFO       ACCESS:      14041  HIT:       5883  MISS:       8158
cpu0_STLB PREFETCH  ACCESS:          0  HIT:          0  MISS:          0
cpu0_STLB WRITEBACK ACCESS:          0  HIT:          0  MISS:          0
cpu0_STLB TRANSLATION ACCESS:          0  HIT:          0  MISS:          0
cpu0_STLB PREFETCH  REQUESTED:          0  ISSUED:          0  USEFUL:          0  USELESS:          0
cpu0_STLB AVERAGE MISS LATENCY: 161.869 cycles
cpu0_L1D TOTAL     ACCESS:   24525548  HIT:   21115395  MISS:    3410153
cpu0_L1D LOAD      ACCESS:   16372543  HIT:   13755421  MISS:    2617122
cpu0_L1D RFO       ACCESS:    8123684  HIT:    7334291  MISS:     789393
cpu0_L1D PREFETCH  ACCESS:          0  HIT:          0  MISS:          0
cpu0_L1D WRITEBACK ACCESS:          0  HIT:          0  MISS:          0
cpu0_L1D TRANSLATION ACCESS:      29321  HIT:      25683  MISS:       3638
cpu0_L1D PREFETCH  REQUESTED:          0  ISSUED:          0  USEFUL:          0  USELESS:          0
cpu0_L1D AVERAGE MISS LATENCY: 482.942 cycles
cpu0_L2C TOTAL     ACCESS:    4455033  HIT:    1718480  MISS:    2736553
cpu0_L2C LOAD      ACCESS:    2617549  HIT:     507748  MISS:    2109801
cpu0_L2C RFO       ACCESS:     789303  HIT:     162822  MISS:     626481
cpu0_L2C PREFETCH  ACCESS:          0  HIT:          0  MISS:          0
cpu0_L2C WRITEBACK ACCESS:    1044543  HIT:    1044370  MISS:        173
cpu0_L2C TRANSLATION ACCESS:       3638  HIT:       3540  MISS:         98
cpu0_L2C PREFETCH  REQUESTED:          0  ISSUED:          0  USEFUL:          0  USELESS:          0
cpu0_L2C AVERAGE MISS LATENCY: 588.143 cycles
LLC TOTAL     ACCESS:    3497094  HIT:     785831  MISS:    2711263
LLC LOAD      ACCESS:    2109801  HIT:     476893  MISS:    1632908
LLC RFO       ACCESS:     626481  HIT:     106755  MISS:     519726
LLC PREFETCH  ACCESS:          0  HIT:          0  MISS:          0
LLC WRITEBACK ACCESS:     760714  HIT:     202162  MISS:     558552
LLC TRANSLATION ACCESS:         98  HIT:         21  MISS:         77
LLC PREFETCH  REQUESTED:          0  ISSUED:          0  USEFUL:          0  USELESS:          0
LLC AVERAGE MISS LATENCY: 572.371 cycles
OPTgen accesses: 45254
OPTgen hits: 11679
OPTgen hit rate: 25.8077



DRAM Statistics
 CHANNEL 0
 RQ ROW_BUFFER_HIT:     215257  ROW_BUFFER_MISS:    1936918
 DBUS AVG_CONGESTED_CYCLE:    3.95965
 WQ ROW_BUFFER_HIT:      62307  ROW_BUFFER_MISS:     608102  FULL:      33147


CPU 0 Branch Prediction Accuracy: 96.8713% MPKI: 1.55303 Average ROB Occupancy at Mispredict: 298.041
Branch type MPKI
BRANCH_DIRECT_JUMP: 0.00018
BRANCH_INDIRECT: 0
BRANCH_CONDITIONAL: 1.55065
BRANCH_DIRECT_CALL: 0.00113
BRANCH_INDIRECT_CALL: 0
BRANCH_RETURN: 0.00107

