
*** ChampSim Multicore Out-of-Order Simulator ***

Warmup Instructions: 10000000
Simulation Instructions: 100000000
Number of CPUs: 1
Off-chip DRAM Size: 4 GiB Channels: 1 Width: 64-bit Data Rate: 3200 MT/s

VirtualMemory physical capacity: 8588881920 num_ppages: 2096895
VirtualMemory page size: 4096 log2_page_size: 12

CPU 0 runs /datasets/cs240c-wi22-a00-public/data/Assignment2/wrf_1212B.trace.xz
CPU 0 Bimodal branch predictor
Basic BTB sets: 1024 ways: 8 indirect buffer size: 4096 RAS size: 64
Initialize Hawkeye state
Heartbeat CPU 0 instructions: 10000004 cycles: 2552145 heartbeat IPC: 3.91827 cumulative IPC: 3.91827 (Simulation time: 0 hr 0 min 33 sec) 

Warmup complete CPU 0 instructions: 10000004 cycles: 2552145 (Simulation time: 0 hr 0 min 33 sec) 

Heartbeat CPU 0 instructions: 20000000 cycles: 9018758 heartbeat IPC: 1.5464 cumulative IPC: 1.5464 (Simulation time: 0 hr 1 min 24 sec) 
Heartbeat CPU 0 instructions: 30000002 cycles: 15456784 heartbeat IPC: 1.55327 cumulative IPC: 1.54983 (Simulation time: 0 hr 2 min 15 sec) 
Heartbeat CPU 0 instructions: 40000002 cycles: 21900282 heartbeat IPC: 1.55195 cumulative IPC: 1.55054 (Simulation time: 0 hr 3 min 5 sec) 
Heartbeat CPU 0 instructions: 50000003 cycles: 28354826 heartbeat IPC: 1.5493 cumulative IPC: 1.55023 (Simulation time: 0 hr 3 min 57 sec) 
Heartbeat CPU 0 instructions: 60000000 cycles: 34835775 heartbeat IPC: 1.54298 cumulative IPC: 1.54877 (Simulation time: 0 hr 4 min 49 sec) 
Heartbeat CPU 0 instructions: 70000002 cycles: 41479766 heartbeat IPC: 1.50512 cumulative IPC: 1.54132 (Simulation time: 0 hr 5 min 40 sec) 
Heartbeat CPU 0 instructions: 80000001 cycles: 48086248 heartbeat IPC: 1.51366 cumulative IPC: 1.53731 (Simulation time: 0 hr 6 min 30 sec) 
Heartbeat CPU 0 instructions: 90000000 cycles: 54582607 heartbeat IPC: 1.53932 cumulative IPC: 1.53756 (Simulation time: 0 hr 7 min 20 sec) 
Heartbeat CPU 0 instructions: 100000003 cycles: 61022936 heartbeat IPC: 1.55272 cumulative IPC: 1.53923 (Simulation time: 0 hr 8 min 12 sec) 
Heartbeat CPU 0 instructions: 110000001 cycles: 67419446 heartbeat IPC: 1.56335 cumulative IPC: 1.54161 (Simulation time: 0 hr 9 min 3 sec) 
Finished CPU 0 instructions: 100000002 cycles: 64867302 cumulative IPC: 1.54161 (Simulation time: 0 hr 9 min 3 sec) 

ChampSim completed all CPUs

Region of Interest Statistics

CPU 0 cumulative IPC: 1.54161 instructions: 100000002 cycles: 64867302
cpu0_DTLB TOTAL     ACCESS:   18869687  HIT:   18629127  MISS:     240560
cpu0_DTLB LOAD      ACCESS:   12070874  HIT:   11914352  MISS:     156522
cpu0_DTLB RFO       ACCESS:    6798813  HIT:    6714775  MISS:      84038
cpu0_DTLB PREFETCH  ACCESS:          0  HIT:          0  MISS:          0
cpu0_DTLB WRITEBACK ACCESS:          0  HIT:          0  MISS:          0
cpu0_DTLB TRANSLATION ACCESS:          0  HIT:          0  MISS:          0
cpu0_DTLB PREFETCH  REQUESTED:          0  ISSUED:          0  USEFUL:          0  USELESS:          0
cpu0_DTLB AVERAGE MISS LATENCY: 14.7574 cycles
cpu0_ITLB TOTAL     ACCESS:    5651214  HIT:    5651214  MISS:          0
cpu0_ITLB LOAD      ACCESS:    5651214  HIT:    5651214  MISS:          0
cpu0_ITLB RFO       ACCESS:          0  HIT:          0  MISS:          0
cpu0_ITLB PREFETCH  ACCESS:          0  HIT:          0  MISS:          0
cpu0_ITLB WRITEBACK ACCESS:          0  HIT:          0  MISS:          0
cpu0_ITLB TRANSLATION ACCESS:          0  HIT:          0  MISS:          0
cpu0_ITLB PREFETCH  REQUESTED:          0  ISSUED:          0  USEFUL:          0  USELESS:          0
cpu0_ITLB AVERAGE MISS LATENCY: -nan cycles
cpu0_L1I TOTAL     ACCESS:    9013408  HIT:    8969599  MISS:      43809
cpu0_L1I LOAD      ACCESS:    9013408  HIT:    8969599  MISS:      43809
cpu0_L1I RFO       ACCESS:          0  HIT:          0  MISS:          0
cpu0_L1I PREFETCH  ACCESS:          0  HIT:          0  MISS:          0
cpu0_L1I WRITEBACK ACCESS:          0  HIT:          0  MISS:          0
cpu0_L1I TRANSLATION ACCESS:          0  HIT:          0  MISS:          0
cpu0_L1I PREFETCH  REQUESTED:          0  ISSUED:          0  USEFUL:          0  USELESS:          0
cpu0_L1I AVERAGE MISS LATENCY: 11.7802 cycles
cpu0_STLB TOTAL     ACCESS:     240560  HIT:     239297  MISS:       1263
cpu0_STLB LOAD      ACCESS:     156522  HIT:     155273  MISS:       1249
cpu0_STLB RFO       ACCESS:      84038  HIT:      84024  MISS:         14
cpu0_STLB PREFETCH  ACCESS:          0  HIT:          0  MISS:          0
cpu0_STLB WRITEBACK ACCESS:          0  HIT:          0  MISS:          0
cpu0_STLB TRANSLATION ACCESS:          0  HIT:          0  MISS:          0
cpu0_STLB PREFETCH  REQUESTED:          0  ISSUED:          0  USEFUL:          0  USELESS:          0
cpu0_STLB AVERAGE MISS LATENCY: 1077.41 cycles
cpu0_L1D TOTAL     ACCESS:   29575785  HIT:   29172183  MISS:     403602
cpu0_L1D LOAD      ACCESS:   14322480  HIT:   13997835  MISS:     324645
cpu0_L1D RFO       ACCESS:   15252328  HIT:   15173597  MISS:      78731
cpu0_L1D PREFETCH  ACCESS:          0  HIT:          0  MISS:          0
cpu0_L1D WRITEBACK ACCESS:          0  HIT:          0  MISS:          0
cpu0_L1D TRANSLATION ACCESS:        977  HIT:        751  MISS:        226
cpu0_L1D PREFETCH  REQUESTED:          0  ISSUED:          0  USEFUL:          0  USELESS:          0
cpu0_L1D AVERAGE MISS LATENCY: 117.949 cycles
cpu0_L2C TOTAL     ACCESS:     589987  HIT:     511512  MISS:      78475
cpu0_L2C LOAD      ACCESS:     368454  HIT:     291139  MISS:      77315
cpu0_L2C RFO       ACCESS:      77259  HIT:      76344  MISS:        915
cpu0_L2C PREFETCH  ACCESS:          0  HIT:          0  MISS:          0
cpu0_L2C WRITEBACK ACCESS:     144048  HIT:     143821  MISS:        227
cpu0_L2C TRANSLATION ACCESS:        226  HIT:        208  MISS:         18
cpu0_L2C PREFETCH  REQUESTED:          0  ISSUED:          0  USEFUL:          0  USELESS:          0
cpu0_L2C AVERAGE MISS LATENCY: 549.924 cycles
LLC TOTAL     ACCESS:     115120  HIT:      19014  MISS:      96106
LLC LOAD      ACCESS:      77315  HIT:        295  MISS:      77020
LLC RFO       ACCESS:        915  HIT:         10  MISS:        905
LLC PREFETCH  ACCESS:          0  HIT:          0  MISS:          0
LLC WRITEBACK ACCESS:      36872  HIT:      18701  MISS:      18171
LLC TRANSLATION ACCESS:         18  HIT:          8  MISS:         10
LLC PREFETCH  REQUESTED:          0  ISSUED:          0  USEFUL:          0  USELESS:          0
LLC AVERAGE MISS LATENCY: 431.94 cycles
OPTgen accesses: 1384
OPTgen hits: 14
OPTgen hit rate: 1.01156



DRAM Statistics
 CHANNEL 0
 RQ ROW_BUFFER_HIT:       2532  ROW_BUFFER_MISS:      75403
 DBUS AVG_CONGESTED_CYCLE:    3.96209
 WQ ROW_BUFFER_HIT:        353  ROW_BUFFER_MISS:      23074  FULL:          0


CPU 0 Branch Prediction Accuracy: 97.2223% MPKI: 4.86341 Average ROB Occupancy at Mispredict: 61.3848
Branch type MPKI
BRANCH_DIRECT_JUMP: 0.00019
BRANCH_INDIRECT: 0
BRANCH_CONDITIONAL: 4.86284
BRANCH_DIRECT_CALL: 0.00021
BRANCH_INDIRECT_CALL: 0
BRANCH_RETURN: 0.00017

