
*** ChampSim Multicore Out-of-Order Simulator ***

Warmup Instructions: 10000000
Simulation Instructions: 100000000
Number of CPUs: 1
Off-chip DRAM Size: 4 GiB Channels: 1 Width: 64-bit Data Rate: 3200 MT/s

VirtualMemory physical capacity: 8588881920 num_ppages: 2096895
VirtualMemory page size: 4096 log2_page_size: 12

CPU 0 runs /datasets/cs240c-wi22-a00-public/data/Assignment2/GemsFDTD_712B.trace.xz
CPU 0 Bimodal branch predictor
Basic BTB sets: 1024 ways: 8 indirect buffer size: 4096 RAS size: 64
Initialize Hawkeye state
Heartbeat CPU 0 instructions: 10000003 cycles: 4479620 heartbeat IPC: 2.23233 cumulative IPC: 2.23233 (Simulation time: 0 hr 1 min 7 sec) 

Warmup complete CPU 0 instructions: 10000003 cycles: 4479620 (Simulation time: 0 hr 1 min 7 sec) 

Heartbeat CPU 0 instructions: 20000000 cycles: 44327061 heartbeat IPC: 0.250957 cumulative IPC: 0.250957 (Simulation time: 0 hr 5 min 30 sec) 
Heartbeat CPU 0 instructions: 30000001 cycles: 83640003 heartbeat IPC: 0.254369 cumulative IPC: 0.252652 (Simulation time: 0 hr 9 min 54 sec) 
Heartbeat CPU 0 instructions: 40000004 cycles: 123570993 heartbeat IPC: 0.250432 cumulative IPC: 0.251907 (Simulation time: 0 hr 14 min 19 sec) 
Heartbeat CPU 0 instructions: 50000002 cycles: 163487959 heartbeat IPC: 0.25052 cumulative IPC: 0.251559 (Simulation time: 0 hr 18 min 42 sec) 
Heartbeat CPU 0 instructions: 60000003 cycles: 203378566 heartbeat IPC: 0.250686 cumulative IPC: 0.251384 (Simulation time: 0 hr 23 min 11 sec) 
Heartbeat CPU 0 instructions: 70000002 cycles: 243300682 heartbeat IPC: 0.250488 cumulative IPC: 0.251234 (Simulation time: 0 hr 27 min 40 sec) 
Heartbeat CPU 0 instructions: 80000000 cycles: 278361820 heartbeat IPC: 0.285216 cumulative IPC: 0.255584 (Simulation time: 0 hr 30 min 42 sec) 
Heartbeat CPU 0 instructions: 90000000 cycles: 313282335 heartbeat IPC: 0.286365 cumulative IPC: 0.259065 (Simulation time: 0 hr 33 min 36 sec) 
Heartbeat CPU 0 instructions: 100000001 cycles: 348109331 heartbeat IPC: 0.287134 cumulative IPC: 0.26191 (Simulation time: 0 hr 36 min 29 sec) 
Heartbeat CPU 0 instructions: 110000002 cycles: 381207747 heartbeat IPC: 0.302129 cumulative IPC: 0.265443 (Simulation time: 0 hr 39 min 14 sec) 
Finished CPU 0 instructions: 100000004 cycles: 376728128 cumulative IPC: 0.265443 (Simulation time: 0 hr 39 min 14 sec) 

ChampSim completed all CPUs

Region of Interest Statistics

CPU 0 cumulative IPC: 0.265443 instructions: 100000004 cycles: 376728128
cpu0_DTLB TOTAL     ACCESS:   29840724  HIT:   29638078  MISS:     202646
cpu0_DTLB LOAD      ACCESS:   23898694  HIT:   23696048  MISS:     202646
cpu0_DTLB RFO       ACCESS:    5942030  HIT:    5942030  MISS:          0
cpu0_DTLB PREFETCH  ACCESS:          0  HIT:          0  MISS:          0
cpu0_DTLB WRITEBACK ACCESS:          0  HIT:          0  MISS:          0
cpu0_DTLB TRANSLATION ACCESS:          0  HIT:          0  MISS:          0
cpu0_DTLB PREFETCH  REQUESTED:          0  ISSUED:          0  USEFUL:          0  USELESS:          0
cpu0_DTLB AVERAGE MISS LATENCY: 158.123 cycles
cpu0_ITLB TOTAL     ACCESS:    1685727  HIT:    1685721  MISS:          6
cpu0_ITLB LOAD      ACCESS:    1685727  HIT:    1685721  MISS:          6
cpu0_ITLB RFO       ACCESS:          0  HIT:          0  MISS:          0
cpu0_ITLB PREFETCH  ACCESS:          0  HIT:          0  MISS:          0
cpu0_ITLB WRITEBACK ACCESS:          0  HIT:          0  MISS:          0
cpu0_ITLB TRANSLATION ACCESS:          0  HIT:          0  MISS:          0
cpu0_ITLB PREFETCH  REQUESTED:          0  ISSUED:          0  USEFUL:          0  USELESS:          0
cpu0_ITLB AVERAGE MISS LATENCY: 280.833 cycles
cpu0_L1I TOTAL     ACCESS:    3165516  HIT:    3165421  MISS:         95
cpu0_L1I LOAD      ACCESS:    3165516  HIT:    3165421  MISS:         95
cpu0_L1I RFO       ACCESS:          0  HIT:          0  MISS:          0
cpu0_L1I PREFETCH  ACCESS:          0  HIT:          0  MISS:          0
cpu0_L1I WRITEBACK ACCESS:          0  HIT:          0  MISS:          0
cpu0_L1I TRANSLATION ACCESS:          0  HIT:          0  MISS:          0
cpu0_L1I PREFETCH  REQUESTED:          0  ISSUED:          0  USEFUL:          0  USELESS:          0
cpu0_L1I AVERAGE MISS LATENCY: 397.042 cycles
cpu0_STLB TOTAL     ACCESS:     202652  HIT:      49544  MISS:     153108
cpu0_STLB LOAD      ACCESS:     202652  HIT:      49544  MISS:     153108
cpu0_STLB RFO       ACCESS:          0  HIT:          0  MISS:          0
cpu0_STLB PREFETCH  ACCESS:          0  HIT:          0  MISS:          0
cpu0_STLB WRITEBACK ACCESS:          0  HIT:          0  MISS:          0
cpu0_STLB TRANSLATION ACCESS:          0  HIT:          0  MISS:          0
cpu0_STLB PREFETCH  REQUESTED:          0  ISSUED:          0  USEFUL:          0  USELESS:          0
cpu0_STLB AVERAGE MISS LATENCY: 197.316 cycles
cpu0_L1D TOTAL     ACCESS:   29758272  HIT:   26410216  MISS:    3348056
cpu0_L1D LOAD      ACCESS:   18526340  HIT:   15180484  MISS:    3345856
cpu0_L1D RFO       ACCESS:   11079384  HIT:   11079364  MISS:         20
cpu0_L1D PREFETCH  ACCESS:          0  HIT:          0  MISS:          0
cpu0_L1D WRITEBACK ACCESS:          0  HIT:          0  MISS:          0
cpu0_L1D TRANSLATION ACCESS:     152548  HIT:     150368  MISS:       2180
cpu0_L1D PREFETCH  REQUESTED:          0  ISSUED:          0  USEFUL:          0  USELESS:          0
cpu0_L1D AVERAGE MISS LATENCY: 676.098 cycles
cpu0_L2C TOTAL     ACCESS:    4725122  HIT:    1561098  MISS:    3164024
cpu0_L2C LOAD      ACCESS:    3345951  HIT:     182037  MISS:    3163914
cpu0_L2C RFO       ACCESS:         20  HIT:          0  MISS:         20
cpu0_L2C PREFETCH  ACCESS:          0  HIT:          0  MISS:          0
cpu0_L2C WRITEBACK ACCESS:    1376971  HIT:    1376967  MISS:          4
cpu0_L2C TRANSLATION ACCESS:       2180  HIT:       2094  MISS:         86
cpu0_L2C PREFETCH  REQUESTED:          0  ISSUED:          0  USEFUL:          0  USELESS:          0
cpu0_L2C AVERAGE MISS LATENCY: 703.77 cycles
LLC TOTAL     ACCESS:    4539527  HIT:     698198  MISS:    3841329
LLC LOAD      ACCESS:    3163914  HIT:     593129  MISS:    2570785
LLC RFO       ACCESS:         20  HIT:          0  MISS:         20
LLC PREFETCH  ACCESS:          0  HIT:          0  MISS:          0
LLC WRITEBACK ACCESS:    1375507  HIT:     105028  MISS:    1270479
LLC TRANSLATION ACCESS:         86  HIT:         41  MISS:         45
LLC PREFETCH  REQUESTED:          0  ISSUED:          0  USEFUL:          0  USELESS:          0
LLC AVERAGE MISS LATENCY: 562.384 cycles
OPTgen accesses: 55333
OPTgen hits: 11751
OPTgen hit rate: 21.2369



DRAM Statistics
 CHANNEL 0
 RQ ROW_BUFFER_HIT:       8535  ROW_BUFFER_MISS:    2562315
 DBUS AVG_CONGESTED_CYCLE:    3.99788
 WQ ROW_BUFFER_HIT:      18500  ROW_BUFFER_MISS:    1347644  FULL:          0


CPU 0 Branch Prediction Accuracy: 90.9863% MPKI: 1.62566 Average ROB Occupancy at Mispredict: 227.528
Branch type MPKI
BRANCH_DIRECT_JUMP: 5e-05
BRANCH_INDIRECT: 0
BRANCH_CONDITIONAL: 1.62559
BRANCH_DIRECT_CALL: 1e-05
BRANCH_INDIRECT_CALL: 0
BRANCH_RETURN: 1e-05

