
*** ChampSim Multicore Out-of-Order Simulator ***

Warmup Instructions: 10000000
Simulation Instructions: 100000000
Number of CPUs: 1
Off-chip DRAM Size: 4 GiB Channels: 1 Width: 64-bit Data Rate: 3200 MT/s

VirtualMemory physical capacity: 8588881920 num_ppages: 2096895
VirtualMemory page size: 4096 log2_page_size: 12

CPU 0 runs /datasets/cs240c-wi22-a00-public/data/Assignment2/mcf_250B.trace.xz
CPU 0 Bimodal branch predictor
Basic BTB sets: 1024 ways: 8 indirect buffer size: 4096 RAS size: 64
Initialize Hawkeye state
Heartbeat CPU 0 instructions: 10000004 cycles: 3834278 heartbeat IPC: 2.60805 cumulative IPC: 2.60805 (Simulation time: 0 hr 0 min 44 sec) 

Warmup complete CPU 0 instructions: 10000004 cycles: 3834278 (Simulation time: 0 hr 0 min 44 sec) 

Heartbeat CPU 0 instructions: 20000000 cycles: 147577857 heartbeat IPC: 0.0695683 cumulative IPC: 0.0695683 (Simulation time: 0 hr 4 min 17 sec) 
Heartbeat CPU 0 instructions: 30000000 cycles: 285717936 heartbeat IPC: 0.0723903 cumulative IPC: 0.0709512 (Simulation time: 0 hr 7 min 39 sec) 
Heartbeat CPU 0 instructions: 40000000 cycles: 436037797 heartbeat IPC: 0.0665248 cumulative IPC: 0.0694117 (Simulation time: 0 hr 11 min 20 sec) 
Heartbeat CPU 0 instructions: 50000000 cycles: 577304691 heartbeat IPC: 0.070788 cumulative IPC: 0.0697508 (Simulation time: 0 hr 14 min 54 sec) 
Heartbeat CPU 0 instructions: 60000000 cycles: 718063735 heartbeat IPC: 0.0710434 cumulative IPC: 0.0700055 (Simulation time: 0 hr 18 min 32 sec) 
Heartbeat CPU 0 instructions: 70000000 cycles: 851738566 heartbeat IPC: 0.0748084 cumulative IPC: 0.0707627 (Simulation time: 0 hr 22 min 5 sec) 
Heartbeat CPU 0 instructions: 80000000 cycles: 995368574 heartbeat IPC: 0.0696233 cumulative IPC: 0.0705977 (Simulation time: 0 hr 25 min 54 sec) 
Heartbeat CPU 0 instructions: 90000000 cycles: 1122287771 heartbeat IPC: 0.0787903 cumulative IPC: 0.0715273 (Simulation time: 0 hr 29 min 9 sec) 
Heartbeat CPU 0 instructions: 100000000 cycles: 1263343243 heartbeat IPC: 0.0708941 cumulative IPC: 0.0714564 (Simulation time: 0 hr 32 min 39 sec) 
Heartbeat CPU 0 instructions: 110000000 cycles: 1406679103 heartbeat IPC: 0.0697662 cumulative IPC: 0.0712837 (Simulation time: 0 hr 36 min 20 sec) 
Finished CPU 0 instructions: 100000000 cycles: 1402844836 cumulative IPC: 0.0712837 (Simulation time: 0 hr 36 min 20 sec) 

ChampSim completed all CPUs

Region of Interest Statistics

CPU 0 cumulative IPC: 0.0712837 instructions: 100000000 cycles: 1402844836
cpu0_DTLB TOTAL     ACCESS:   20766643  HIT:    2976377  MISS:   17790266
cpu0_DTLB LOAD      ACCESS:   20271251  HIT:    2536877  MISS:   17734374
cpu0_DTLB RFO       ACCESS:     495392  HIT:     439500  MISS:      55892
cpu0_DTLB PREFETCH  ACCESS:          0  HIT:          0  MISS:          0
cpu0_DTLB WRITEBACK ACCESS:          0  HIT:          0  MISS:          0
cpu0_DTLB TRANSLATION ACCESS:          0  HIT:          0  MISS:          0
cpu0_DTLB PREFETCH  REQUESTED:          0  ISSUED:          0  USEFUL:          0  USELESS:          0
cpu0_DTLB AVERAGE MISS LATENCY: 11.9402 cycles
cpu0_ITLB TOTAL     ACCESS:   11314991  HIT:   11314991  MISS:          0
cpu0_ITLB LOAD      ACCESS:   11314991  HIT:   11314991  MISS:          0
cpu0_ITLB RFO       ACCESS:          0  HIT:          0  MISS:          0
cpu0_ITLB PREFETCH  ACCESS:          0  HIT:          0  MISS:          0
cpu0_ITLB WRITEBACK ACCESS:          0  HIT:          0  MISS:          0
cpu0_ITLB TRANSLATION ACCESS:          0  HIT:          0  MISS:          0
cpu0_ITLB PREFETCH  REQUESTED:          0  ISSUED:          0  USEFUL:          0  USELESS:          0
cpu0_ITLB AVERAGE MISS LATENCY: -nan cycles
cpu0_L1I TOTAL     ACCESS:          4  HIT:          4  MISS:          0
cpu0_L1I LOAD      ACCESS:          4  HIT:          4  MISS:          0
cpu0_L1I RFO       ACCESS:          0  HIT:          0  MISS:          0
cpu0_L1I PREFETCH  ACCESS:          0  HIT:          0  MISS:          0
cpu0_L1I WRITEBACK ACCESS:          0  HIT:          0  MISS:          0
cpu0_L1I TRANSLATION ACCESS:          0  HIT:          0  MISS:          0
cpu0_L1I PREFETCH  REQUESTED:          0  ISSUED:          0  USEFUL:          0  USELESS:          0
cpu0_L1I AVERAGE MISS LATENCY: -nan cycles
cpu0_STLB TOTAL     ACCESS:   17790266  HIT:   17413134  MISS:     377132
cpu0_STLB LOAD      ACCESS:   17734374  HIT:   17359379  MISS:     374995
cpu0_STLB RFO       ACCESS:      55892  HIT:      53755  MISS:       2137
cpu0_STLB PREFETCH  ACCESS:          0  HIT:          0  MISS:          0
cpu0_STLB WRITEBACK ACCESS:          0  HIT:          0  MISS:          0
cpu0_STLB TRANSLATION ACCESS:          0  HIT:          0  MISS:          0
cpu0_STLB PREFETCH  REQUESTED:          0  ISSUED:          0  USEFUL:          0  USELESS:          0
cpu0_STLB AVERAGE MISS LATENCY: 138.666 cycles
cpu0_L1D TOTAL     ACCESS:   21384629  HIT:    3440752  MISS:   17943877
cpu0_L1D LOAD      ACCESS:   20343973  HIT:    2560026  MISS:   17783947
cpu0_L1D RFO       ACCESS:     664708  HIT:     633049  MISS:      31659
cpu0_L1D PREFETCH  ACCESS:          0  HIT:          0  MISS:          0
cpu0_L1D WRITEBACK ACCESS:          0  HIT:          0  MISS:          0
cpu0_L1D TRANSLATION ACCESS:     375948  HIT:     247677  MISS:     128271
cpu0_L1D PREFETCH  REQUESTED:          0  ISSUED:          0  USEFUL:          0  USELESS:          0
cpu0_L1D AVERAGE MISS LATENCY: 230.526 cycles
cpu0_L2C TOTAL     ACCESS:   18302509  HIT:    5792210  MISS:   12510299
cpu0_L2C LOAD      ACCESS:   17783920  HIT:    5386512  MISS:   12397408
cpu0_L2C RFO       ACCESS:      31658  HIT:       9145  MISS:      22513
cpu0_L2C PREFETCH  ACCESS:          0  HIT:          0  MISS:          0
cpu0_L2C WRITEBACK ACCESS:     358660  HIT:     358658  MISS:          2
cpu0_L2C TRANSLATION ACCESS:     128271  HIT:      37895  MISS:      90376
cpu0_L2C PREFETCH  REQUESTED:          0  ISSUED:          0  USEFUL:          0  USELESS:          0
cpu0_L2C AVERAGE MISS LATENCY: 314.861 cycles
LLC TOTAL     ACCESS:   12800257  HIT:    5753780  MISS:    7046477
LLC LOAD      ACCESS:   12397408  HIT:    5563808  MISS:    6833600
LLC RFO       ACCESS:      22513  HIT:      11180  MISS:      11333
LLC PREFETCH  ACCESS:          0  HIT:          0  MISS:          0
LLC WRITEBACK ACCESS:     289960  HIT:     167847  MISS:     122113
LLC TRANSLATION ACCESS:      90376  HIT:      10945  MISS:      79431
LLC PREFETCH  REQUESTED:          0  ISSUED:          0  USEFUL:          0  USELESS:          0
LLC AVERAGE MISS LATENCY: 521.72 cycles
OPTgen accesses: 215314
OPTgen hits: 97502
OPTgen hit rate: 45.2836



DRAM Statistics
 CHANNEL 0
 RQ ROW_BUFFER_HIT:      42317  ROW_BUFFER_MISS:    6881852
 DBUS AVG_CONGESTED_CYCLE:     3.9636
 WQ ROW_BUFFER_HIT:       9891  ROW_BUFFER_MISS:     213673  FULL:          0


CPU 0 Branch Prediction Accuracy: 91.6559% MPKI: 25.5287 Average ROB Occupancy at Mispredict: 24.4582
Branch type MPKI
BRANCH_DIRECT_JUMP: 2e-05
BRANCH_INDIRECT: 0
BRANCH_CONDITIONAL: 25.5287
BRANCH_DIRECT_CALL: 0
BRANCH_INDIRECT_CALL: 0
BRANCH_RETURN: 0

