
*** ChampSim Multicore Out-of-Order Simulator ***

Warmup Instructions: 10000000
Simulation Instructions: 100000000
Number of CPUs: 1
Off-chip DRAM Size: 4 GiB Channels: 1 Width: 64-bit Data Rate: 3200 MT/s

VirtualMemory physical capacity: 8588881920 num_ppages: 2096895
VirtualMemory page size: 4096 log2_page_size: 12

CPU 0 runs /datasets/cs240c-wi22-a00-public/data/Assignment2/wrf_1228B.trace.xz
CPU 0 Bimodal branch predictor
Basic BTB sets: 1024 ways: 8 indirect buffer size: 4096 RAS size: 64
Initialize Hawkeye state
Heartbeat CPU 0 instructions: 10000001 cycles: 3904471 heartbeat IPC: 2.56117 cumulative IPC: 2.56117 (Simulation time: 0 hr 1 min 2 sec) 

Warmup complete CPU 0 instructions: 10000001 cycles: 3904471 (Simulation time: 0 hr 1 min 2 sec) 

Heartbeat CPU 0 instructions: 20000001 cycles: 12270799 heartbeat IPC: 1.19527 cumulative IPC: 1.19527 (Simulation time: 0 hr 2 min 22 sec) 
Heartbeat CPU 0 instructions: 30000004 cycles: 24600308 heartbeat IPC: 0.811063 cumulative IPC: 0.966378 (Simulation time: 0 hr 4 min 6 sec) 
Heartbeat CPU 0 instructions: 40000000 cycles: 37779943 heartbeat IPC: 0.758746 cumulative IPC: 0.885597 (Simulation time: 0 hr 5 min 58 sec) 
Heartbeat CPU 0 instructions: 50000001 cycles: 46756197 heartbeat IPC: 1.11405 cumulative IPC: 0.933451 (Simulation time: 0 hr 7 min 21 sec) 
Heartbeat CPU 0 instructions: 60000003 cycles: 57035705 heartbeat IPC: 0.972809 cumulative IPC: 0.941066 (Simulation time: 0 hr 8 min 54 sec) 
Heartbeat CPU 0 instructions: 70000001 cycles: 68319085 heartbeat IPC: 0.886259 cumulative IPC: 0.931466 (Simulation time: 0 hr 10 min 21 sec) 
Heartbeat CPU 0 instructions: 80000004 cycles: 78029078 heartbeat IPC: 1.02987 cumulative IPC: 0.944356 (Simulation time: 0 hr 11 min 29 sec) 
Heartbeat CPU 0 instructions: 90000001 cycles: 87714073 heartbeat IPC: 1.03252 cumulative IPC: 0.954545 (Simulation time: 0 hr 12 min 38 sec) 
Heartbeat CPU 0 instructions: 100000002 cycles: 97392413 heartbeat IPC: 1.03324 cumulative IPC: 0.962691 (Simulation time: 0 hr 13 min 46 sec) 
Heartbeat CPU 0 instructions: 110000000 cycles: 107062576 heartbeat IPC: 1.03411 cumulative IPC: 0.969386 (Simulation time: 0 hr 14 min 57 sec) 
Finished CPU 0 instructions: 100000004 cycles: 103158106 cumulative IPC: 0.969386 (Simulation time: 0 hr 14 min 57 sec) 

ChampSim completed all CPUs

Region of Interest Statistics

CPU 0 cumulative IPC: 0.969386 instructions: 100000004 cycles: 103158106
cpu0_DTLB TOTAL     ACCESS:   19665875  HIT:   19569637  MISS:      96238
cpu0_DTLB LOAD      ACCESS:   17655253  HIT:   17573323  MISS:      81930
cpu0_DTLB RFO       ACCESS:    2010622  HIT:    1996314  MISS:      14308
cpu0_DTLB PREFETCH  ACCESS:          0  HIT:          0  MISS:          0
cpu0_DTLB WRITEBACK ACCESS:          0  HIT:          0  MISS:          0
cpu0_DTLB TRANSLATION ACCESS:          0  HIT:          0  MISS:          0
cpu0_DTLB PREFETCH  REQUESTED:          0  ISSUED:          0  USEFUL:          0  USELESS:          0
cpu0_DTLB AVERAGE MISS LATENCY: 20.0857 cycles
cpu0_ITLB TOTAL     ACCESS:    4204120  HIT:    4204108  MISS:         12
cpu0_ITLB LOAD      ACCESS:    4204120  HIT:    4204108  MISS:         12
cpu0_ITLB RFO       ACCESS:          0  HIT:          0  MISS:          0
cpu0_ITLB PREFETCH  ACCESS:          0  HIT:          0  MISS:          0
cpu0_ITLB WRITEBACK ACCESS:          0  HIT:          0  MISS:          0
cpu0_ITLB TRANSLATION ACCESS:          0  HIT:          0  MISS:          0
cpu0_ITLB PREFETCH  REQUESTED:          0  ISSUED:          0  USEFUL:          0  USELESS:          0
cpu0_ITLB AVERAGE MISS LATENCY: 231.083 cycles
cpu0_L1I TOTAL     ACCESS:    6672389  HIT:    6671641  MISS:        748
cpu0_L1I LOAD      ACCESS:    6672389  HIT:    6671641  MISS:        748
cpu0_L1I RFO       ACCESS:          0  HIT:          0  MISS:          0
cpu0_L1I PREFETCH  ACCESS:          0  HIT:          0  MISS:          0
cpu0_L1I WRITEBACK ACCESS:          0  HIT:          0  MISS:          0
cpu0_L1I TRANSLATION ACCESS:          0  HIT:          0  MISS:          0
cpu0_L1I PREFETCH  REQUESTED:          0  ISSUED:          0  USEFUL:          0  USELESS:          0
cpu0_L1I AVERAGE MISS LATENCY: 347.921 cycles
cpu0_STLB TOTAL     ACCESS:      96250  HIT:      86696  MISS:       9554
cpu0_STLB LOAD      ACCESS:      81942  HIT:      75034  MISS:       6908
cpu0_STLB RFO       ACCESS:      14308  HIT:      11662  MISS:       2646
cpu0_STLB PREFETCH  ACCESS:          0  HIT:          0  MISS:          0
cpu0_STLB WRITEBACK ACCESS:          0  HIT:          0  MISS:          0
cpu0_STLB TRANSLATION ACCESS:          0  HIT:          0  MISS:          0
cpu0_STLB PREFETCH  REQUESTED:          0  ISSUED:          0  USEFUL:          0  USELESS:          0
cpu0_STLB AVERAGE MISS LATENCY: 111.927 cycles
cpu0_L1D TOTAL     ACCESS:   18880142  HIT:   17521749  MISS:    1358393
cpu0_L1D LOAD      ACCESS:   14829202  HIT:   13730169  MISS:    1099033
cpu0_L1D RFO       ACCESS:    4041396  HIT:    3782822  MISS:     258574
cpu0_L1D PREFETCH  ACCESS:          0  HIT:          0  MISS:          0
cpu0_L1D WRITEBACK ACCESS:          0  HIT:          0  MISS:          0
cpu0_L1D TRANSLATION ACCESS:       9544  HIT:       8758  MISS:        786
cpu0_L1D PREFETCH  REQUESTED:          0  ISSUED:          0  USEFUL:          0  USELESS:          0
cpu0_L1D AVERAGE MISS LATENCY: 214.442 cycles
cpu0_L2C TOTAL     ACCESS:    1836337  HIT:     802900  MISS:    1033437
cpu0_L2C LOAD      ACCESS:    1099757  HIT:     287133  MISS:     812624
cpu0_L2C RFO       ACCESS:     258573  HIT:      39556  MISS:     219017
cpu0_L2C PREFETCH  ACCESS:          0  HIT:          0  MISS:          0
cpu0_L2C WRITEBACK ACCESS:     477221  HIT:     475538  MISS:       1683
cpu0_L2C TRANSLATION ACCESS:        786  HIT:        673  MISS:        113
cpu0_L2C PREFETCH  REQUESTED:          0  ISSUED:          0  USEFUL:          0  USELESS:          0
cpu0_L2C AVERAGE MISS LATENCY: 267.634 cycles
LLC TOTAL     ACCESS:    1463800  HIT:     390336  MISS:    1073464
LLC LOAD      ACCESS:     812624  HIT:     148126  MISS:     664498
LLC RFO       ACCESS:     219017  HIT:      44702  MISS:     174315
LLC PREFETCH  ACCESS:          0  HIT:          0  MISS:          0
LLC WRITEBACK ACCESS:     432046  HIT:     197468  MISS:     234578
LLC TRANSLATION ACCESS:        113  HIT:         40  MISS:         73
LLC PREFETCH  REQUESTED:          0  ISSUED:          0  USEFUL:          0  USELESS:          0
LLC AVERAGE MISS LATENCY: 237.469 cycles
OPTgen accesses: 20219
OPTgen hits: 5777
OPTgen hit rate: 28.5721



DRAM Statistics
 CHANNEL 0
 RQ ROW_BUFFER_HIT:      91328  ROW_BUFFER_MISS:     747273
 DBUS AVG_CONGESTED_CYCLE:    3.92979
 WQ ROW_BUFFER_HIT:      31415  ROW_BUFFER_MISS:     288791  FULL:       1043


CPU 0 Branch Prediction Accuracy: 97.4481% MPKI: 2.04611 Average ROB Occupancy at Mispredict: 260.71
Branch type MPKI
BRANCH_DIRECT_JUMP: 0.00028
BRANCH_INDIRECT: 0
BRANCH_CONDITIONAL: 2.0456
BRANCH_DIRECT_CALL: 0.00011
BRANCH_INDIRECT_CALL: 0
BRANCH_RETURN: 0.00012

