
*** ChampSim Multicore Out-of-Order Simulator ***

Warmup Instructions: 10000000
Simulation Instructions: 100000000
Number of CPUs: 1
Off-chip DRAM Size: 4 GiB Channels: 1 Width: 64-bit Data Rate: 3200 MT/s

VirtualMemory physical capacity: 8588881920 num_ppages: 2096895
VirtualMemory page size: 4096 log2_page_size: 12

CPU 0 runs /datasets/cs240c-wi22-a00-public/data/Assignment2/soplex_217B.trace.xz
CPU 0 Bimodal branch predictor
Basic BTB sets: 1024 ways: 8 indirect buffer size: 4096 RAS size: 64
Initialize Hawkeye state
Heartbeat CPU 0 instructions: 10000000 cycles: 2844436 heartbeat IPC: 3.51564 cumulative IPC: 3.51564 (Simulation time: 0 hr 0 min 31 sec) 

Warmup complete CPU 0 instructions: 10000004 cycles: 2844437 (Simulation time: 0 hr 0 min 31 sec) 

Heartbeat CPU 0 instructions: 20000000 cycles: 34843095 heartbeat IPC: 0.312513 cumulative IPC: 0.312513 (Simulation time: 0 hr 2 min 9 sec) 
Heartbeat CPU 0 instructions: 30000004 cycles: 65086822 heartbeat IPC: 0.330647 cumulative IPC: 0.321324 (Simulation time: 0 hr 3 min 51 sec) 
Heartbeat CPU 0 instructions: 40000003 cycles: 96339762 heartbeat IPC: 0.31997 cumulative IPC: 0.320872 (Simulation time: 0 hr 5 min 27 sec) 
Heartbeat CPU 0 instructions: 50000000 cycles: 125341232 heartbeat IPC: 0.34481 cumulative IPC: 0.326539 (Simulation time: 0 hr 7 min 2 sec) 
Heartbeat CPU 0 instructions: 60000002 cycles: 156443402 heartbeat IPC: 0.321521 cumulative IPC: 0.325523 (Simulation time: 0 hr 8 min 42 sec) 
Heartbeat CPU 0 instructions: 70000000 cycles: 200825424 heartbeat IPC: 0.225316 cumulative IPC: 0.303059 (Simulation time: 0 hr 11 min 2 sec) 
Heartbeat CPU 0 instructions: 80000000 cycles: 233204925 heartbeat IPC: 0.308837 cumulative IPC: 0.303872 (Simulation time: 0 hr 12 min 33 sec) 
Heartbeat CPU 0 instructions: 90000002 cycles: 260751629 heartbeat IPC: 0.36302 cumulative IPC: 0.310189 (Simulation time: 0 hr 14 min 9 sec) 
Heartbeat CPU 0 instructions: 100000004 cycles: 292662102 heartbeat IPC: 0.313377 cumulative IPC: 0.31054 (Simulation time: 0 hr 15 min 54 sec) 
Heartbeat CPU 0 instructions: 110000000 cycles: 321184793 heartbeat IPC: 0.350598 cumulative IPC: 0.314129 (Simulation time: 0 hr 17 min 15 sec) 
Finished CPU 0 instructions: 100000000 cycles: 318340358 cumulative IPC: 0.314129 (Simulation time: 0 hr 17 min 15 sec) 

ChampSim completed all CPUs

Region of Interest Statistics

CPU 0 cumulative IPC: 0.314129 instructions: 100000000 cycles: 318340358
cpu0_DTLB TOTAL     ACCESS:   21865940  HIT:   21000204  MISS:     865736
cpu0_DTLB LOAD      ACCESS:   16700309  HIT:   16017038  MISS:     683271
cpu0_DTLB RFO       ACCESS:    5165631  HIT:    4983166  MISS:     182465
cpu0_DTLB PREFETCH  ACCESS:          0  HIT:          0  MISS:          0
cpu0_DTLB WRITEBACK ACCESS:          0  HIT:          0  MISS:          0
cpu0_DTLB TRANSLATION ACCESS:          0  HIT:          0  MISS:          0
cpu0_DTLB PREFETCH  REQUESTED:          0  ISSUED:          0  USEFUL:          0  USELESS:          0
cpu0_DTLB AVERAGE MISS LATENCY: 15.444 cycles
cpu0_ITLB TOTAL     ACCESS:    8513698  HIT:    8513680  MISS:         18
cpu0_ITLB LOAD      ACCESS:    8513698  HIT:    8513680  MISS:         18
cpu0_ITLB RFO       ACCESS:          0  HIT:          0  MISS:          0
cpu0_ITLB PREFETCH  ACCESS:          0  HIT:          0  MISS:          0
cpu0_ITLB WRITEBACK ACCESS:          0  HIT:          0  MISS:          0
cpu0_ITLB TRANSLATION ACCESS:          0  HIT:          0  MISS:          0
cpu0_ITLB PREFETCH  REQUESTED:          0  ISSUED:          0  USEFUL:          0  USELESS:          0
cpu0_ITLB AVERAGE MISS LATENCY: 502.889 cycles
cpu0_L1I TOTAL     ACCESS:     356713  HIT:     356060  MISS:        653
cpu0_L1I LOAD      ACCESS:     356713  HIT:     356060  MISS:        653
cpu0_L1I RFO       ACCESS:          0  HIT:          0  MISS:          0
cpu0_L1I PREFETCH  ACCESS:          0  HIT:          0  MISS:          0
cpu0_L1I WRITEBACK ACCESS:          0  HIT:          0  MISS:          0
cpu0_L1I TRANSLATION ACCESS:          0  HIT:          0  MISS:          0
cpu0_L1I PREFETCH  REQUESTED:          0  ISSUED:          0  USEFUL:          0  USELESS:          0
cpu0_L1I AVERAGE MISS LATENCY: 310.536 cycles
cpu0_STLB TOTAL     ACCESS:     865754  HIT:     742240  MISS:     123514
cpu0_STLB LOAD      ACCESS:     683289  HIT:     569128  MISS:     114161
cpu0_STLB RFO       ACCESS:     182465  HIT:     173112  MISS:       9353
cpu0_STLB PREFETCH  ACCESS:          0  HIT:          0  MISS:          0
cpu0_STLB WRITEBACK ACCESS:          0  HIT:          0  MISS:          0
cpu0_STLB TRANSLATION ACCESS:          0  HIT:          0  MISS:          0
cpu0_STLB PREFETCH  REQUESTED:          0  ISSUED:          0  USEFUL:          0  USELESS:          0
cpu0_STLB AVERAGE MISS LATENCY: 44.0655 cycles
cpu0_L1D TOTAL     ACCESS:   18174115  HIT:   12350100  MISS:    5824015
cpu0_L1D LOAD      ACCESS:   12241050  HIT:    7246709  MISS:    4994341
cpu0_L1D RFO       ACCESS:    5813159  HIT:    4988512  MISS:     824647
cpu0_L1D PREFETCH  ACCESS:          0  HIT:          0  MISS:          0
cpu0_L1D WRITEBACK ACCESS:          0  HIT:          0  MISS:          0
cpu0_L1D TRANSLATION ACCESS:     119906  HIT:     114879  MISS:       5027
cpu0_L1D PREFETCH  REQUESTED:          0  ISSUED:          0  USEFUL:          0  USELESS:          0
cpu0_L1D AVERAGE MISS LATENCY: 198.076 cycles
cpu0_L2C TOTAL     ACCESS:    8411865  HIT:    3954627  MISS:    4457238
cpu0_L2C LOAD      ACCESS:    4994430  HIT:    1232158  MISS:    3762272
cpu0_L2C RFO       ACCESS:     824587  HIT:     130476  MISS:     694111
cpu0_L2C PREFETCH  ACCESS:          0  HIT:          0  MISS:          0
cpu0_L2C WRITEBACK ACCESS:    2587821  HIT:    2587717  MISS:        104
cpu0_L2C TRANSLATION ACCESS:       5027  HIT:       4276  MISS:        751
cpu0_L2C PREFETCH  REQUESTED:          0  ISSUED:          0  USEFUL:          0  USELESS:          0
cpu0_L2C AVERAGE MISS LATENCY: 244.25 cycles
LLC TOTAL     ACCESS:    6308085  HIT:    3326194  MISS:    2981891
LLC LOAD      ACCESS:    3762258  HIT:    1509788  MISS:    2252470
LLC RFO       ACCESS:     694109  HIT:     242020  MISS:     452089
LLC PREFETCH  ACCESS:          0  HIT:          0  MISS:          0
LLC WRITEBACK ACCESS:    1850967  HIT:    1573978  MISS:     276989
LLC TRANSLATION ACCESS:        751  HIT:        408  MISS:        343
LLC PREFETCH  REQUESTED:          0  ISSUED:          0  USEFUL:          0  USELESS:          0
LLC AVERAGE MISS LATENCY: 333.575 cycles
OPTgen accesses: 77568
OPTgen hits: 37089
OPTgen hit rate: 47.8148



DRAM Statistics
 CHANNEL 0
 RQ ROW_BUFFER_HIT:     281386  ROW_BUFFER_MISS:    2420321
 DBUS AVG_CONGESTED_CYCLE:    3.95065
 WQ ROW_BUFFER_HIT:      37547  ROW_BUFFER_MISS:     892216  FULL:     209461


CPU 0 Branch Prediction Accuracy: 93.2069% MPKI: 14.28 Average ROB Occupancy at Mispredict: 48.91
Branch type MPKI
BRANCH_DIRECT_JUMP: 0.00099
BRANCH_INDIRECT: 0.00023
BRANCH_CONDITIONAL: 14.2767
BRANCH_DIRECT_CALL: 0.00062
BRANCH_INDIRECT_CALL: 0.00054
BRANCH_RETURN: 0.00093

