
*** ChampSim Multicore Out-of-Order Simulator ***

Warmup Instructions: 10000000
Simulation Instructions: 100000000
Number of CPUs: 1
Off-chip DRAM Size: 4 GiB Channels: 1 Width: 64-bit Data Rate: 3200 MT/s

VirtualMemory physical capacity: 8588881920 num_ppages: 2096895
VirtualMemory page size: 4096 log2_page_size: 12

CPU 0 runs /datasets/cs240c-wi22-a00-public/data/Assignment2/zeusmp_300B.trace.xz
CPU 0 Bimodal branch predictor
Basic BTB sets: 1024 ways: 8 indirect buffer size: 4096 RAS size: 64
Initialize Hawkeye state
Heartbeat CPU 0 instructions: 10000000 cycles: 2814860 heartbeat IPC: 3.55257 cumulative IPC: 3.55257 (Simulation time: 0 hr 0 min 27 sec) 

Warmup complete CPU 0 instructions: 10000002 cycles: 2814863 (Simulation time: 0 hr 0 min 27 sec) 

Heartbeat CPU 0 instructions: 20000004 cycles: 8431968 heartbeat IPC: 1.78028 cumulative IPC: 1.78028 (Simulation time: 0 hr 1 min 8 sec) 
Heartbeat CPU 0 instructions: 30000004 cycles: 14060924 heartbeat IPC: 1.77653 cumulative IPC: 1.7784 (Simulation time: 0 hr 1 min 50 sec) 
Heartbeat CPU 0 instructions: 40000003 cycles: 19676089 heartbeat IPC: 1.78089 cumulative IPC: 1.77923 (Simulation time: 0 hr 2 min 29 sec) 
Heartbeat CPU 0 instructions: 50000004 cycles: 25334911 heartbeat IPC: 1.76715 cumulative IPC: 1.7762 (Simulation time: 0 hr 3 min 9 sec) 
Heartbeat CPU 0 instructions: 60000001 cycles: 30982970 heartbeat IPC: 1.77052 cumulative IPC: 1.77506 (Simulation time: 0 hr 3 min 52 sec) 
Heartbeat CPU 0 instructions: 70000000 cycles: 36583813 heartbeat IPC: 1.78545 cumulative IPC: 1.77678 (Simulation time: 0 hr 4 min 34 sec) 
Heartbeat CPU 0 instructions: 80000000 cycles: 42193458 heartbeat IPC: 1.78264 cumulative IPC: 1.77762 (Simulation time: 0 hr 5 min 17 sec) 
Heartbeat CPU 0 instructions: 90000003 cycles: 47913554 heartbeat IPC: 1.74822 cumulative IPC: 1.77389 (Simulation time: 0 hr 5 min 56 sec) 
Heartbeat CPU 0 instructions: 100000000 cycles: 53522083 heartbeat IPC: 1.783 cumulative IPC: 1.7749 (Simulation time: 0 hr 6 min 38 sec) 
Heartbeat CPU 0 instructions: 110000004 cycles: 59084497 heartbeat IPC: 1.79778 cumulative IPC: 1.77716 (Simulation time: 0 hr 7 min 20 sec) 
Finished CPU 0 instructions: 100000002 cycles: 56269634 cumulative IPC: 1.77716 (Simulation time: 0 hr 7 min 20 sec) 

ChampSim completed all CPUs

Region of Interest Statistics

CPU 0 cumulative IPC: 1.77716 instructions: 100000002 cycles: 56269634
cpu0_DTLB TOTAL     ACCESS:   16101619  HIT:   15018543  MISS:    1083076
cpu0_DTLB LOAD      ACCESS:   10874764  HIT:    9809445  MISS:    1065319
cpu0_DTLB RFO       ACCESS:    5226855  HIT:    5209098  MISS:      17757
cpu0_DTLB PREFETCH  ACCESS:          0  HIT:          0  MISS:          0
cpu0_DTLB WRITEBACK ACCESS:          0  HIT:          0  MISS:          0
cpu0_DTLB TRANSLATION ACCESS:          0  HIT:          0  MISS:          0
cpu0_DTLB PREFETCH  REQUESTED:          0  ISSUED:          0  USEFUL:          0  USELESS:          0
cpu0_DTLB AVERAGE MISS LATENCY: 10.5194 cycles
cpu0_ITLB TOTAL     ACCESS:    1803852  HIT:    1803852  MISS:          0
cpu0_ITLB LOAD      ACCESS:    1803852  HIT:    1803852  MISS:          0
cpu0_ITLB RFO       ACCESS:          0  HIT:          0  MISS:          0
cpu0_ITLB PREFETCH  ACCESS:          0  HIT:          0  MISS:          0
cpu0_ITLB WRITEBACK ACCESS:          0  HIT:          0  MISS:          0
cpu0_ITLB TRANSLATION ACCESS:          0  HIT:          0  MISS:          0
cpu0_ITLB PREFETCH  REQUESTED:          0  ISSUED:          0  USEFUL:          0  USELESS:          0
cpu0_ITLB AVERAGE MISS LATENCY: -nan cycles
cpu0_L1I TOTAL     ACCESS:    2749626  HIT:    2749626  MISS:          0
cpu0_L1I LOAD      ACCESS:    2749626  HIT:    2749626  MISS:          0
cpu0_L1I RFO       ACCESS:          0  HIT:          0  MISS:          0
cpu0_L1I PREFETCH  ACCESS:          0  HIT:          0  MISS:          0
cpu0_L1I WRITEBACK ACCESS:          0  HIT:          0  MISS:          0
cpu0_L1I TRANSLATION ACCESS:          0  HIT:          0  MISS:          0
cpu0_L1I PREFETCH  REQUESTED:          0  ISSUED:          0  USEFUL:          0  USELESS:          0
cpu0_L1I AVERAGE MISS LATENCY: -nan cycles
cpu0_STLB TOTAL     ACCESS:    1083076  HIT:    1076124  MISS:       6952
cpu0_STLB LOAD      ACCESS:    1065319  HIT:    1060420  MISS:       4899
cpu0_STLB RFO       ACCESS:      17757  HIT:      15704  MISS:       2053
cpu0_STLB PREFETCH  ACCESS:          0  HIT:          0  MISS:          0
cpu0_STLB WRITEBACK ACCESS:          0  HIT:          0  MISS:          0
cpu0_STLB TRANSLATION ACCESS:          0  HIT:          0  MISS:          0
cpu0_STLB PREFETCH  REQUESTED:          0  ISSUED:          0  USEFUL:          0  USELESS:          0
cpu0_STLB AVERAGE MISS LATENCY: 211.875 cycles
cpu0_L1D TOTAL     ACCESS:   18598371  HIT:   17937572  MISS:     660799
cpu0_L1D LOAD      ACCESS:   10915484  HIT:   10434740  MISS:     480744
cpu0_L1D RFO       ACCESS:    7676251  HIT:    7500832  MISS:     175419
cpu0_L1D PREFETCH  ACCESS:          0  HIT:          0  MISS:          0
cpu0_L1D WRITEBACK ACCESS:          0  HIT:          0  MISS:          0
cpu0_L1D TRANSLATION ACCESS:       6636  HIT:       2000  MISS:       4636
cpu0_L1D PREFETCH  REQUESTED:          0  ISSUED:          0  USEFUL:          0  USELESS:          0
cpu0_L1D AVERAGE MISS LATENCY: 137.387 cycles
cpu0_L2C TOTAL     ACCESS:     838873  HIT:     409949  MISS:     428924
cpu0_L2C LOAD      ACCESS:     480716  HIT:     197420  MISS:     283296
cpu0_L2C RFO       ACCESS:     175372  HIT:      34909  MISS:     140463
cpu0_L2C PREFETCH  ACCESS:          0  HIT:          0  MISS:          0
cpu0_L2C WRITEBACK ACCESS:     178149  HIT:     173218  MISS:       4931
cpu0_L2C TRANSLATION ACCESS:       4636  HIT:       4402  MISS:        234
cpu0_L2C PREFETCH  REQUESTED:          0  ISSUED:          0  USEFUL:          0  USELESS:          0
cpu0_L2C AVERAGE MISS LATENCY: 194.695 cycles
LLC TOTAL     ACCESS:     580543  HIT:     245349  MISS:     335194
LLC LOAD      ACCESS:     283296  HIT:      92851  MISS:     190445
LLC RFO       ACCESS:     140463  HIT:      63671  MISS:      76792
LLC PREFETCH  ACCESS:          0  HIT:          0  MISS:          0
LLC WRITEBACK ACCESS:     156550  HIT:      88735  MISS:      67815
LLC TRANSLATION ACCESS:        234  HIT:         92  MISS:        142
LLC PREFETCH  REQUESTED:          0  ISSUED:          0  USEFUL:          0  USELESS:          0
LLC AVERAGE MISS LATENCY: 222.573 cycles
OPTgen accesses: 7361
OPTgen hits: 2741
OPTgen hit rate: 37.2368



DRAM Statistics
 CHANNEL 0
 RQ ROW_BUFFER_HIT:      18611  ROW_BUFFER_MISS:     248765
 DBUS AVG_CONGESTED_CYCLE:     3.9987
 WQ ROW_BUFFER_HIT:       5364  ROW_BUFFER_MISS:      77140  FULL:          0


CPU 0 Branch Prediction Accuracy: 98.8423% MPKI: 0.45019 Average ROB Occupancy at Mispredict: 205.607
Branch type MPKI
BRANCH_DIRECT_JUMP: 0
BRANCH_INDIRECT: 0
BRANCH_CONDITIONAL: 0.45019
BRANCH_DIRECT_CALL: 0
BRANCH_INDIRECT_CALL: 0
BRANCH_RETURN: 0

