
*** ChampSim Multicore Out-of-Order Simulator ***

Warmup Instructions: 10000000
Simulation Instructions: 100000000
Number of CPUs: 1
Off-chip DRAM Size: 4 GiB Channels: 1 Width: 64-bit Data Rate: 3200 MT/s

VirtualMemory physical capacity: 8588881920 num_ppages: 2096895
VirtualMemory page size: 4096 log2_page_size: 12

CPU 0 runs /datasets/cs240c-wi22-a00-public/data/Assignment2/omnetpp_4B.trace.xz
CPU 0 Bimodal branch predictor
Basic BTB sets: 1024 ways: 8 indirect buffer size: 4096 RAS size: 64
Initialize Hawkeye state
Heartbeat CPU 0 instructions: 10000002 cycles: 2526523 heartbeat IPC: 3.95801 cumulative IPC: 3.95801 (Simulation time: 0 hr 0 min 31 sec) 

Warmup complete CPU 0 instructions: 10000002 cycles: 2526523 (Simulation time: 0 hr 0 min 31 sec) 

Heartbeat CPU 0 instructions: 20000000 cycles: 9576611 heartbeat IPC: 1.41842 cumulative IPC: 1.41842 (Simulation time: 0 hr 1 min 16 sec) 
Heartbeat CPU 0 instructions: 30000001 cycles: 17412534 heartbeat IPC: 1.27617 cumulative IPC: 1.34354 (Simulation time: 0 hr 2 min 11 sec) 
Heartbeat CPU 0 instructions: 40000002 cycles: 25112898 heartbeat IPC: 1.29864 cumulative IPC: 1.32823 (Simulation time: 0 hr 3 min 2 sec) 
Heartbeat CPU 0 instructions: 50000000 cycles: 32560754 heartbeat IPC: 1.34267 cumulative IPC: 1.33181 (Simulation time: 0 hr 3 min 50 sec) 
Heartbeat CPU 0 instructions: 60000000 cycles: 40456553 heartbeat IPC: 1.2665 cumulative IPC: 1.31822 (Simulation time: 0 hr 4 min 43 sec) 
Heartbeat CPU 0 instructions: 70000000 cycles: 47900883 heartbeat IPC: 1.3433 cumulative IPC: 1.32233 (Simulation time: 0 hr 5 min 32 sec) 
Heartbeat CPU 0 instructions: 80000000 cycles: 55588396 heartbeat IPC: 1.30081 cumulative IPC: 1.31921 (Simulation time: 0 hr 6 min 24 sec) 
Heartbeat CPU 0 instructions: 90000000 cycles: 63754129 heartbeat IPC: 1.22463 cumulative IPC: 1.3066 (Simulation time: 0 hr 7 min 19 sec) 
Heartbeat CPU 0 instructions: 100000001 cycles: 70952382 heartbeat IPC: 1.38923 cumulative IPC: 1.31529 (Simulation time: 0 hr 8 min 3 sec) 
Heartbeat CPU 0 instructions: 110000002 cycles: 78934127 heartbeat IPC: 1.25286 cumulative IPC: 1.30877 (Simulation time: 0 hr 8 min 56 sec) 
Finished CPU 0 instructions: 100000000 cycles: 76407604 cumulative IPC: 1.30877 (Simulation time: 0 hr 8 min 56 sec) 

ChampSim completed all CPUs

Region of Interest Statistics

CPU 0 cumulative IPC: 1.30877 instructions: 100000000 cycles: 76407604
cpu0_DTLB TOTAL     ACCESS:   11766147  HIT:   10334249  MISS:    1431898
cpu0_DTLB LOAD      ACCESS:    9180080  HIT:    7749745  MISS:    1430335
cpu0_DTLB RFO       ACCESS:    2586067  HIT:    2584504  MISS:       1563
cpu0_DTLB PREFETCH  ACCESS:          0  HIT:          0  MISS:          0
cpu0_DTLB WRITEBACK ACCESS:          0  HIT:          0  MISS:          0
cpu0_DTLB TRANSLATION ACCESS:          0  HIT:          0  MISS:          0
cpu0_DTLB PREFETCH  REQUESTED:          0  ISSUED:          0  USEFUL:          0  USELESS:          0
cpu0_DTLB AVERAGE MISS LATENCY: 17.7004 cycles
cpu0_ITLB TOTAL     ACCESS:    7987554  HIT:    7963387  MISS:      24167
cpu0_ITLB LOAD      ACCESS:    7987554  HIT:    7963387  MISS:      24167
cpu0_ITLB RFO       ACCESS:          0  HIT:          0  MISS:          0
cpu0_ITLB PREFETCH  ACCESS:          0  HIT:          0  MISS:          0
cpu0_ITLB WRITEBACK ACCESS:          0  HIT:          0  MISS:          0
cpu0_ITLB TRANSLATION ACCESS:          0  HIT:          0  MISS:          0
cpu0_ITLB PREFETCH  REQUESTED:          0  ISSUED:          0  USEFUL:          0  USELESS:          0
cpu0_ITLB AVERAGE MISS LATENCY: 10.8435 cycles
cpu0_L1I TOTAL     ACCESS:    1939545  HIT:    1876698  MISS:      62847
cpu0_L1I LOAD      ACCESS:    1939545  HIT:    1876698  MISS:      62847
cpu0_L1I RFO       ACCESS:          0  HIT:          0  MISS:          0
cpu0_L1I PREFETCH  ACCESS:          0  HIT:          0  MISS:          0
cpu0_L1I WRITEBACK ACCESS:          0  HIT:          0  MISS:          0
cpu0_L1I TRANSLATION ACCESS:          0  HIT:          0  MISS:          0
cpu0_L1I PREFETCH  REQUESTED:          0  ISSUED:          0  USEFUL:          0  USELESS:          0
cpu0_L1I AVERAGE MISS LATENCY: 49.2667 cycles
cpu0_STLB TOTAL     ACCESS:    1456065  HIT:      23516  MISS:    1432549
cpu0_STLB LOAD      ACCESS:    1454502  HIT:      22770  MISS:    1431732
cpu0_STLB RFO       ACCESS:       1563  HIT:        746  MISS:        817
cpu0_STLB PREFETCH  ACCESS:          0  HIT:          0  MISS:          0
cpu0_STLB WRITEBACK ACCESS:          0  HIT:          0  MISS:          0
cpu0_STLB TRANSLATION ACCESS:          0  HIT:          0  MISS:          0
cpu0_STLB PREFETCH  REQUESTED:          0  ISSUED:          0  USEFUL:          0  USELESS:          0
cpu0_STLB AVERAGE MISS LATENCY: 8.30852 cycles
cpu0_L1D TOTAL     ACCESS:   12767676  HIT:   10277773  MISS:    2489903
cpu0_L1D LOAD      ACCESS:    7423424  HIT:    4972218  MISS:    2451206
cpu0_L1D RFO       ACCESS:    4650278  HIT:    4612570  MISS:      37708
cpu0_L1D PREFETCH  ACCESS:          0  HIT:          0  MISS:          0
cpu0_L1D WRITEBACK ACCESS:          0  HIT:          0  MISS:          0
cpu0_L1D TRANSLATION ACCESS:     693974  HIT:     692985  MISS:        989
cpu0_L1D PREFETCH  REQUESTED:          0  ISSUED:          0  USEFUL:          0  USELESS:          0
cpu0_L1D AVERAGE MISS LATENCY: 94.1562 cycles
cpu0_L2C TOTAL     ACCESS:    2633693  HIT:     114315  MISS:    2519378
cpu0_L2C LOAD      ACCESS:    2514052  HIT:      32382  MISS:    2481670
cpu0_L2C RFO       ACCESS:      37708  HIT:        794  MISS:      36914
cpu0_L2C PREFETCH  ACCESS:          0  HIT:          0  MISS:          0
cpu0_L2C WRITEBACK ACCESS:      80944  HIT:      80944  MISS:          0
cpu0_L2C TRANSLATION ACCESS:        989  HIT:        195  MISS:        794
cpu0_L2C PREFETCH  REQUESTED:          0  ISSUED:          0  USEFUL:          0  USELESS:          0
cpu0_L2C AVERAGE MISS LATENCY: 82.5973 cycles
LLC TOTAL     ACCESS:    2598915  HIT:    2078510  MISS:     520405
LLC LOAD      ACCESS:    2481670  HIT:    1987246  MISS:     494424
LLC RFO       ACCESS:      36914  HIT:      16831  MISS:      20083
LLC PREFETCH  ACCESS:          0  HIT:          0  MISS:          0
LLC WRITEBACK ACCESS:      79537  HIT:      73847  MISS:       5690
LLC TRANSLATION ACCESS:        794  HIT:        586  MISS:        208
LLC PREFETCH  REQUESTED:          0  ISSUED:          0  USEFUL:          0  USELESS:          0
LLC AVERAGE MISS LATENCY: 298.142 cycles
OPTgen accesses: 44262
OPTgen hits: 39324
OPTgen hit rate: 88.8437



DRAM Statistics
 CHANNEL 0
 RQ ROW_BUFFER_HIT:      24367  ROW_BUFFER_MISS:     486757
 DBUS AVG_CONGESTED_CYCLE:    3.94907
 WQ ROW_BUFFER_HIT:       6360  ROW_BUFFER_MISS:      46657  FULL:          0


CPU 0 Branch Prediction Accuracy: 97.4293% MPKI: 8.26178 Average ROB Occupancy at Mispredict: 57.0693
Branch type MPKI
BRANCH_DIRECT_JUMP: 0.00037
BRANCH_INDIRECT: 0.12485
BRANCH_CONDITIONAL: 8.10493
BRANCH_DIRECT_CALL: 0.00326
BRANCH_INDIRECT_CALL: 0.00558
BRANCH_RETURN: 0.02279

