
*** ChampSim Multicore Out-of-Order Simulator ***

Warmup Instructions: 10000000
Simulation Instructions: 100000000
Number of CPUs: 1
Off-chip DRAM Size: 4 GiB Channels: 1 Width: 64-bit Data Rate: 3200 MT/s

VirtualMemory physical capacity: 8588881920 num_ppages: 2096895
VirtualMemory page size: 4096 log2_page_size: 12

CPU 0 runs /datasets/cs240c-wi22-a00-public/data/Assignment2/wrf_1212B.trace.xz
CPU 0 Bimodal branch predictor
Basic BTB sets: 1024 ways: 8 indirect buffer size: 4096 RAS size: 64
Initialize Hawkeye state
Heartbeat CPU 0 instructions: 10000004 cycles: 2552145 heartbeat IPC: 3.91827 cumulative IPC: 3.91827 (Simulation time: 0 hr 0 min 31 sec) 

Warmup complete CPU 0 instructions: 10000004 cycles: 2552145 (Simulation time: 0 hr 0 min 31 sec) 

Heartbeat CPU 0 instructions: 20000000 cycles: 9018758 heartbeat IPC: 1.5464 cumulative IPC: 1.5464 (Simulation time: 0 hr 1 min 19 sec) 
Heartbeat CPU 0 instructions: 30000002 cycles: 15456784 heartbeat IPC: 1.55327 cumulative IPC: 1.54983 (Simulation time: 0 hr 2 min 6 sec) 
Heartbeat CPU 0 instructions: 40000002 cycles: 21899792 heartbeat IPC: 1.55207 cumulative IPC: 1.55058 (Simulation time: 0 hr 2 min 54 sec) 
Heartbeat CPU 0 instructions: 50000003 cycles: 28353296 heartbeat IPC: 1.54955 cumulative IPC: 1.55032 (Simulation time: 0 hr 3 min 42 sec) 
Heartbeat CPU 0 instructions: 60000000 cycles: 34834925 heartbeat IPC: 1.54282 cumulative IPC: 1.54881 (Simulation time: 0 hr 4 min 30 sec) 
Heartbeat CPU 0 instructions: 70000002 cycles: 41478191 heartbeat IPC: 1.50528 cumulative IPC: 1.54138 (Simulation time: 0 hr 5 min 18 sec) 
Heartbeat CPU 0 instructions: 80000001 cycles: 48083498 heartbeat IPC: 1.51393 cumulative IPC: 1.5374 (Simulation time: 0 hr 6 min 6 sec) 
Heartbeat CPU 0 instructions: 90000000 cycles: 54580852 heartbeat IPC: 1.53909 cumulative IPC: 1.53761 (Simulation time: 0 hr 6 min 55 sec) 
Heartbeat CPU 0 instructions: 100000003 cycles: 61019521 heartbeat IPC: 1.55312 cumulative IPC: 1.53932 (Simulation time: 0 hr 7 min 41 sec) 
Heartbeat CPU 0 instructions: 110000001 cycles: 67413986 heartbeat IPC: 1.56385 cumulative IPC: 1.54174 (Simulation time: 0 hr 8 min 29 sec) 
Finished CPU 0 instructions: 100000002 cycles: 64861842 cumulative IPC: 1.54174 (Simulation time: 0 hr 8 min 29 sec) 

ChampSim completed all CPUs

Region of Interest Statistics

CPU 0 cumulative IPC: 1.54174 instructions: 100000002 cycles: 64861842
cpu0_DTLB TOTAL     ACCESS:   18869613  HIT:   18629053  MISS:     240560
cpu0_DTLB LOAD      ACCESS:   12070834  HIT:   11914313  MISS:     156521
cpu0_DTLB RFO       ACCESS:    6798779  HIT:    6714740  MISS:      84039
cpu0_DTLB PREFETCH  ACCESS:          0  HIT:          0  MISS:          0
cpu0_DTLB WRITEBACK ACCESS:          0  HIT:          0  MISS:          0
cpu0_DTLB TRANSLATION ACCESS:          0  HIT:          0  MISS:          0
cpu0_DTLB PREFETCH  REQUESTED:          0  ISSUED:          0  USEFUL:          0  USELESS:          0
cpu0_DTLB AVERAGE MISS LATENCY: 14.9687 cycles
cpu0_ITLB TOTAL     ACCESS:    5651245  HIT:    5651245  MISS:          0
cpu0_ITLB LOAD      ACCESS:    5651245  HIT:    5651245  MISS:          0
cpu0_ITLB RFO       ACCESS:          0  HIT:          0  MISS:          0
cpu0_ITLB PREFETCH  ACCESS:          0  HIT:          0  MISS:          0
cpu0_ITLB WRITEBACK ACCESS:          0  HIT:          0  MISS:          0
cpu0_ITLB TRANSLATION ACCESS:          0  HIT:          0  MISS:          0
cpu0_ITLB PREFETCH  REQUESTED:          0  ISSUED:          0  USEFUL:          0  USELESS:          0
cpu0_ITLB AVERAGE MISS LATENCY: -nan cycles
cpu0_L1I TOTAL     ACCESS:    9013369  HIT:    8969560  MISS:      43809
cpu0_L1I LOAD      ACCESS:    9013369  HIT:    8969560  MISS:      43809
cpu0_L1I RFO       ACCESS:          0  HIT:          0  MISS:          0
cpu0_L1I PREFETCH  ACCESS:          0  HIT:          0  MISS:          0
cpu0_L1I WRITEBACK ACCESS:          0  HIT:          0  MISS:          0
cpu0_L1I TRANSLATION ACCESS:          0  HIT:          0  MISS:          0
cpu0_L1I PREFETCH  REQUESTED:          0  ISSUED:          0  USEFUL:          0  USELESS:          0
cpu0_L1I AVERAGE MISS LATENCY: 11.7842 cycles
cpu0_STLB TOTAL     ACCESS:     240560  HIT:     239297  MISS:       1263
cpu0_STLB LOAD      ACCESS:     156521  HIT:     155272  MISS:       1249
cpu0_STLB RFO       ACCESS:      84039  HIT:      84025  MISS:         14
cpu0_STLB PREFETCH  ACCESS:          0  HIT:          0  MISS:          0
cpu0_STLB WRITEBACK ACCESS:          0  HIT:          0  MISS:          0
cpu0_STLB TRANSLATION ACCESS:          0  HIT:          0  MISS:          0
cpu0_STLB PREFETCH  REQUESTED:          0  ISSUED:          0  USEFUL:          0  USELESS:          0
cpu0_STLB AVERAGE MISS LATENCY: 1117.65 cycles
cpu0_L1D TOTAL     ACCESS:   29575747  HIT:   29172140  MISS:     403607
cpu0_L1D LOAD      ACCESS:   14322446  HIT:   13997797  MISS:     324649
cpu0_L1D RFO       ACCESS:   15252331  HIT:   15173599  MISS:      78732
cpu0_L1D PREFETCH  ACCESS:          0  HIT:          0  MISS:          0
cpu0_L1D WRITEBACK ACCESS:          0  HIT:          0  MISS:          0
cpu0_L1D TRANSLATION ACCESS:        970  HIT:        744  MISS:        226
cpu0_L1D PREFETCH  REQUESTED:          0  ISSUED:          0  USEFUL:          0  USELESS:          0
cpu0_L1D AVERAGE MISS LATENCY: 117.775 cycles
cpu0_L2C TOTAL     ACCESS:     589992  HIT:     511516  MISS:      78476
cpu0_L2C LOAD      ACCESS:     368458  HIT:     291146  MISS:      77312
cpu0_L2C RFO       ACCESS:      77260  HIT:      76345  MISS:        915
cpu0_L2C PREFETCH  ACCESS:          0  HIT:          0  MISS:          0
cpu0_L2C WRITEBACK ACCESS:     144048  HIT:     143817  MISS:        231
cpu0_L2C TRANSLATION ACCESS:        226  HIT:        208  MISS:         18
cpu0_L2C PREFETCH  REQUESTED:          0  ISSUED:          0  USEFUL:          0  USELESS:          0
cpu0_L2C AVERAGE MISS LATENCY: 549.032 cycles
LLC TOTAL     ACCESS:     115214  HIT:      18996  MISS:      96218
LLC LOAD      ACCESS:      77312  HIT:        292  MISS:      77020
LLC RFO       ACCESS:        915  HIT:         10  MISS:        905
LLC PREFETCH  ACCESS:          0  HIT:          0  MISS:          0
LLC WRITEBACK ACCESS:      36969  HIT:      18685  MISS:      18284
LLC TRANSLATION ACCESS:         18  HIT:          9  MISS:          9
LLC PREFETCH  REQUESTED:          0  ISSUED:          0  USEFUL:          0  USELESS:          0
LLC AVERAGE MISS LATENCY: 430.716 cycles
OPTgen accesses: 1384
OPTgen hits: 29
OPTgen hit rate: 2.09538



DRAM Statistics
 CHANNEL 0
 RQ ROW_BUFFER_HIT:       2541  ROW_BUFFER_MISS:      75393
 DBUS AVG_CONGESTED_CYCLE:    3.96183
 WQ ROW_BUFFER_HIT:        362  ROW_BUFFER_MISS:      22673  FULL:          0


CPU 0 Branch Prediction Accuracy: 97.2223% MPKI: 4.86341 Average ROB Occupancy at Mispredict: 61.3829
Branch type MPKI
BRANCH_DIRECT_JUMP: 0.00019
BRANCH_INDIRECT: 0
BRANCH_CONDITIONAL: 4.86284
BRANCH_DIRECT_CALL: 0.00021
BRANCH_INDIRECT_CALL: 0
BRANCH_RETURN: 0.00017

