
*** ChampSim Multicore Out-of-Order Simulator ***

Warmup Instructions: 10000000
Simulation Instructions: 100000000
Number of CPUs: 1
Off-chip DRAM Size: 4 GiB Channels: 1 Width: 64-bit Data Rate: 3200 MT/s

VirtualMemory physical capacity: 8588881920 num_ppages: 2096895
VirtualMemory page size: 4096 log2_page_size: 12

CPU 0 runs /datasets/cs240c-wi22-a00-public/data/Assignment2/astar_23B.trace.xz
CPU 0 Bimodal branch predictor
Basic BTB sets: 1024 ways: 8 indirect buffer size: 4096 RAS size: 64
Initialize Hawkeye state
Heartbeat CPU 0 instructions: 10000002 cycles: 2670768 heartbeat IPC: 3.74424 cumulative IPC: 3.74424 (Simulation time: 0 hr 0 min 34 sec) 

Warmup complete CPU 0 instructions: 10000002 cycles: 2670768 (Simulation time: 0 hr 0 min 34 sec) 

Heartbeat CPU 0 instructions: 20000003 cycles: 25559643 heartbeat IPC: 0.436894 cumulative IPC: 0.436894 (Simulation time: 0 hr 1 min 13 sec) 
Heartbeat CPU 0 instructions: 30000000 cycles: 49833089 heartbeat IPC: 0.411973 cumulative IPC: 0.424067 (Simulation time: 0 hr 1 min 53 sec) 
Heartbeat CPU 0 instructions: 40000002 cycles: 74289651 heartbeat IPC: 0.408888 cumulative IPC: 0.418884 (Simulation time: 0 hr 2 min 39 sec) 
Heartbeat CPU 0 instructions: 50000002 cycles: 98501033 heartbeat IPC: 0.413029 cumulative IPC: 0.417405 (Simulation time: 0 hr 3 min 21 sec) 
Heartbeat CPU 0 instructions: 60000000 cycles: 123078412 heartbeat IPC: 0.406878 cumulative IPC: 0.415256 (Simulation time: 0 hr 4 min 4 sec) 
Heartbeat CPU 0 instructions: 70000000 cycles: 146149850 heartbeat IPC: 0.433436 cumulative IPC: 0.418179 (Simulation time: 0 hr 4 min 48 sec) 
Heartbeat CPU 0 instructions: 80000000 cycles: 170214802 heartbeat IPC: 0.415542 cumulative IPC: 0.417801 (Simulation time: 0 hr 5 min 33 sec) 
Heartbeat CPU 0 instructions: 90000004 cycles: 194840091 heartbeat IPC: 0.406087 cumulative IPC: 0.4163 (Simulation time: 0 hr 6 min 16 sec) 
Heartbeat CPU 0 instructions: 100000002 cycles: 218181534 heartbeat IPC: 0.428422 cumulative IPC: 0.417613 (Simulation time: 0 hr 6 min 57 sec) 
Heartbeat CPU 0 instructions: 110000003 cycles: 242128307 heartbeat IPC: 0.417593 cumulative IPC: 0.417611 (Simulation time: 0 hr 7 min 39 sec) 
Finished CPU 0 instructions: 100000001 cycles: 239457539 cumulative IPC: 0.417611 (Simulation time: 0 hr 7 min 39 sec) 

ChampSim completed all CPUs

Region of Interest Statistics

CPU 0 cumulative IPC: 0.417611 instructions: 100000001 cycles: 239457539
cpu0_DTLB TOTAL     ACCESS:   24054191  HIT:   21626345  MISS:    2427846
cpu0_DTLB LOAD      ACCESS:   21285522  HIT:   19103587  MISS:    2181935
cpu0_DTLB RFO       ACCESS:    2768669  HIT:    2522758  MISS:     245911
cpu0_DTLB PREFETCH  ACCESS:          0  HIT:          0  MISS:          0
cpu0_DTLB WRITEBACK ACCESS:          0  HIT:          0  MISS:          0
cpu0_DTLB TRANSLATION ACCESS:          0  HIT:          0  MISS:          0
cpu0_DTLB PREFETCH  REQUESTED:          0  ISSUED:          0  USEFUL:          0  USELESS:          0
cpu0_DTLB AVERAGE MISS LATENCY: 10.5704 cycles
cpu0_ITLB TOTAL     ACCESS:   12810468  HIT:   12810458  MISS:         10
cpu0_ITLB LOAD      ACCESS:   12810468  HIT:   12810458  MISS:         10
cpu0_ITLB RFO       ACCESS:          0  HIT:          0  MISS:          0
cpu0_ITLB PREFETCH  ACCESS:          0  HIT:          0  MISS:          0
cpu0_ITLB WRITEBACK ACCESS:          0  HIT:          0  MISS:          0
cpu0_ITLB TRANSLATION ACCESS:          0  HIT:          0  MISS:          0
cpu0_ITLB PREFETCH  REQUESTED:          0  ISSUED:          0  USEFUL:          0  USELESS:          0
cpu0_ITLB AVERAGE MISS LATENCY: 239.6 cycles
cpu0_L1I TOTAL     ACCESS:       4962  HIT:       4861  MISS:        101
cpu0_L1I LOAD      ACCESS:       4962  HIT:       4861  MISS:        101
cpu0_L1I RFO       ACCESS:          0  HIT:          0  MISS:          0
cpu0_L1I PREFETCH  ACCESS:          0  HIT:          0  MISS:          0
cpu0_L1I WRITEBACK ACCESS:          0  HIT:          0  MISS:          0
cpu0_L1I TRANSLATION ACCESS:          0  HIT:          0  MISS:          0
cpu0_L1I PREFETCH  REQUESTED:          0  ISSUED:          0  USEFUL:          0  USELESS:          0
cpu0_L1I AVERAGE MISS LATENCY: 208.386 cycles
cpu0_STLB TOTAL     ACCESS:    2427856  HIT:    2026646  MISS:     401210
cpu0_STLB LOAD      ACCESS:    2181945  HIT:    1847058  MISS:     334887
cpu0_STLB RFO       ACCESS:     245911  HIT:     179588  MISS:      66323
cpu0_STLB PREFETCH  ACCESS:          0  HIT:          0  MISS:          0
cpu0_STLB WRITEBACK ACCESS:          0  HIT:          0  MISS:          0
cpu0_STLB TRANSLATION ACCESS:          0  HIT:          0  MISS:          0
cpu0_STLB PREFETCH  REQUESTED:          0  ISSUED:          0  USEFUL:          0  USELESS:          0
cpu0_STLB AVERAGE MISS LATENCY: 9.443 cycles
cpu0_L1D TOTAL     ACCESS:   26431700  HIT:   23507208  MISS:    2924492
cpu0_L1D LOAD      ACCESS:   21757760  HIT:   18872334  MISS:    2885426
cpu0_L1D RFO       ACCESS:    4287414  HIT:    4250331  MISS:      37083
cpu0_L1D PREFETCH  ACCESS:          0  HIT:          0  MISS:          0
cpu0_L1D WRITEBACK ACCESS:          0  HIT:          0  MISS:          0
cpu0_L1D TRANSLATION ACCESS:     386526  HIT:     384543  MISS:       1983
cpu0_L1D PREFETCH  REQUESTED:          0  ISSUED:          0  USEFUL:          0  USELESS:          0
cpu0_L1D AVERAGE MISS LATENCY: 33.3736 cycles
cpu0_L2C TOTAL     ACCESS:    3881066  HIT:    2756693  MISS:    1124373
cpu0_L2C LOAD      ACCESS:    2885456  HIT:    1767322  MISS:    1118134
cpu0_L2C RFO       ACCESS:      37083  HIT:      31088  MISS:       5995
cpu0_L2C PREFETCH  ACCESS:          0  HIT:          0  MISS:          0
cpu0_L2C WRITEBACK ACCESS:     956544  HIT:     956488  MISS:         56
cpu0_L2C TRANSLATION ACCESS:       1983  HIT:       1795  MISS:        188
cpu0_L2C PREFETCH  REQUESTED:          0  ISSUED:          0  USEFUL:          0  USELESS:          0
cpu0_L2C AVERAGE MISS LATENCY: 58.1583 cycles
LLC TOTAL     ACCESS:    1532669  HIT:    1266157  MISS:     266512
LLC LOAD      ACCESS:    1117977  HIT:     877030  MISS:     240947
LLC RFO       ACCESS:       5995  HIT:       5663  MISS:        332
LLC PREFETCH  ACCESS:          0  HIT:          0  MISS:          0
LLC WRITEBACK ACCESS:     408509  HIT:     383287  MISS:      25222
LLC TRANSLATION ACCESS:        188  HIT:        177  MISS:         11
LLC PREFETCH  REQUESTED:          0  ISSUED:          0  USEFUL:          0  USELESS:          0
LLC AVERAGE MISS LATENCY: 156.781 cycles
OPTgen accesses: 18808
OPTgen hits: 14959
OPTgen hit rate: 79.5353



DRAM Statistics
 CHANNEL 0
 RQ ROW_BUFFER_HIT:        542  ROW_BUFFER_MISS:     240557
 DBUS AVG_CONGESTED_CYCLE:    3.56328
 WQ ROW_BUFFER_HIT:       7102  ROW_BUFFER_MISS:     131462  FULL:          0


CPU 0 Branch Prediction Accuracy: 69.3175% MPKI: 58.5794 Average ROB Occupancy at Mispredict: 5.1346
Branch type MPKI
BRANCH_DIRECT_JUMP: 0.00025
BRANCH_INDIRECT: 0
BRANCH_CONDITIONAL: 58.5789
BRANCH_DIRECT_CALL: 0.00016
BRANCH_INDIRECT_CALL: 0
BRANCH_RETURN: 0.00016

