
*** ChampSim Multicore Out-of-Order Simulator ***

Warmup Instructions: 10000000
Simulation Instructions: 100000000
Number of CPUs: 1
Off-chip DRAM Size: 4 GiB Channels: 1 Width: 64-bit Data Rate: 3200 MT/s

VirtualMemory physical capacity: 8588881920 num_ppages: 2096895
VirtualMemory page size: 4096 log2_page_size: 12

CPU 0 runs /datasets/cs240c-wi22-a00-public/data/Assignment2/sphinx3_883B.trace.xz
CPU 0 Bimodal branch predictor
Basic BTB sets: 1024 ways: 8 indirect buffer size: 4096 RAS size: 64
Initialize Hawkeye state
Heartbeat CPU 0 instructions: 10000003 cycles: 2628876 heartbeat IPC: 3.80391 cumulative IPC: 3.80391 (Simulation time: 0 hr 0 min 27 sec) 

Warmup complete CPU 0 instructions: 10000003 cycles: 2628876 (Simulation time: 0 hr 0 min 27 sec) 

Heartbeat CPU 0 instructions: 20000000 cycles: 15440807 heartbeat IPC: 0.780522 cumulative IPC: 0.780522 (Simulation time: 0 hr 1 min 24 sec) 
Heartbeat CPU 0 instructions: 30000001 cycles: 27925439 heartbeat IPC: 0.800985 cumulative IPC: 0.790621 (Simulation time: 0 hr 2 min 19 sec) 
Heartbeat CPU 0 instructions: 40000004 cycles: 39758107 heartbeat IPC: 0.845118 cumulative IPC: 0.807989 (Simulation time: 0 hr 3 min 12 sec) 
Heartbeat CPU 0 instructions: 50000003 cycles: 50911324 heartbeat IPC: 0.896602 cumulative IPC: 0.828458 (Simulation time: 0 hr 4 min 5 sec) 
Heartbeat CPU 0 instructions: 60000000 cycles: 62162295 heartbeat IPC: 0.888812 cumulative IPC: 0.839864 (Simulation time: 0 hr 4 min 59 sec) 
Heartbeat CPU 0 instructions: 70000000 cycles: 71773694 heartbeat IPC: 1.04043 cumulative IPC: 0.867744 (Simulation time: 0 hr 5 min 46 sec) 
Heartbeat CPU 0 instructions: 80000000 cycles: 82456696 heartbeat IPC: 0.936066 cumulative IPC: 0.876887 (Simulation time: 0 hr 6 min 36 sec) 
Heartbeat CPU 0 instructions: 90000002 cycles: 91999318 heartbeat IPC: 1.04793 cumulative IPC: 0.895151 (Simulation time: 0 hr 7 min 22 sec) 
Heartbeat CPU 0 instructions: 100000003 cycles: 100725974 heartbeat IPC: 1.14591 cumulative IPC: 0.917458 (Simulation time: 0 hr 8 min 7 sec) 
Heartbeat CPU 0 instructions: 110000003 cycles: 111575841 heartbeat IPC: 0.92167 cumulative IPC: 0.917878 (Simulation time: 0 hr 8 min 59 sec) 
Finished CPU 0 instructions: 100000000 cycles: 108946965 cumulative IPC: 0.917878 (Simulation time: 0 hr 8 min 59 sec) 

ChampSim completed all CPUs

Region of Interest Statistics

CPU 0 cumulative IPC: 0.917878 instructions: 100000000 cycles: 108946965
cpu0_DTLB TOTAL     ACCESS:   16865655  HIT:   16705725  MISS:     159930
cpu0_DTLB LOAD      ACCESS:   15498915  HIT:   15347222  MISS:     151693
cpu0_DTLB RFO       ACCESS:    1366740  HIT:    1358503  MISS:       8237
cpu0_DTLB PREFETCH  ACCESS:          0  HIT:          0  MISS:          0
cpu0_DTLB WRITEBACK ACCESS:          0  HIT:          0  MISS:          0
cpu0_DTLB TRANSLATION ACCESS:          0  HIT:          0  MISS:          0
cpu0_DTLB PREFETCH  REQUESTED:          0  ISSUED:          0  USEFUL:          0  USELESS:          0
cpu0_DTLB AVERAGE MISS LATENCY: 12.832 cycles
cpu0_ITLB TOTAL     ACCESS:    9398384  HIT:    9398319  MISS:         65
cpu0_ITLB LOAD      ACCESS:    9398384  HIT:    9398319  MISS:         65
cpu0_ITLB RFO       ACCESS:          0  HIT:          0  MISS:          0
cpu0_ITLB PREFETCH  ACCESS:          0  HIT:          0  MISS:          0
cpu0_ITLB WRITEBACK ACCESS:          0  HIT:          0  MISS:          0
cpu0_ITLB TRANSLATION ACCESS:          0  HIT:          0  MISS:          0
cpu0_ITLB PREFETCH  REQUESTED:          0  ISSUED:          0  USEFUL:          0  USELESS:          0
cpu0_ITLB AVERAGE MISS LATENCY: 148.477 cycles
cpu0_L1I TOTAL     ACCESS:     192652  HIT:     191272  MISS:       1380
cpu0_L1I LOAD      ACCESS:     192652  HIT:     191272  MISS:       1380
cpu0_L1I RFO       ACCESS:          0  HIT:          0  MISS:          0
cpu0_L1I PREFETCH  ACCESS:          0  HIT:          0  MISS:          0
cpu0_L1I WRITEBACK ACCESS:          0  HIT:          0  MISS:          0
cpu0_L1I TRANSLATION ACCESS:          0  HIT:          0  MISS:          0
cpu0_L1I PREFETCH  REQUESTED:          0  ISSUED:          0  USEFUL:          0  USELESS:          0
cpu0_L1I AVERAGE MISS LATENCY: 191.028 cycles
cpu0_STLB TOTAL     ACCESS:     159995  HIT:      99100  MISS:      60895
cpu0_STLB LOAD      ACCESS:     151758  HIT:      92080  MISS:      59678
cpu0_STLB RFO       ACCESS:       8237  HIT:       7020  MISS:       1217
cpu0_STLB PREFETCH  ACCESS:          0  HIT:          0  MISS:          0
cpu0_STLB WRITEBACK ACCESS:          0  HIT:          0  MISS:          0
cpu0_STLB TRANSLATION ACCESS:          0  HIT:          0  MISS:          0
cpu0_STLB PREFETCH  REQUESTED:          0  ISSUED:          0  USEFUL:          0  USELESS:          0
cpu0_STLB AVERAGE MISS LATENCY: 10.0866 cycles
cpu0_L1D TOTAL     ACCESS:   12429055  HIT:   10679734  MISS:    1749321
cpu0_L1D LOAD      ACCESS:   10172359  HIT:    8537965  MISS:    1634394
cpu0_L1D RFO       ACCESS:    2198560  HIT:    2084428  MISS:     114132
cpu0_L1D PREFETCH  ACCESS:          0  HIT:          0  MISS:          0
cpu0_L1D WRITEBACK ACCESS:          0  HIT:          0  MISS:          0
cpu0_L1D TRANSLATION ACCESS:      58136  HIT:      57341  MISS:        795
cpu0_L1D PREFETCH  REQUESTED:          0  ISSUED:          0  USEFUL:          0  USELESS:          0
cpu0_L1D AVERAGE MISS LATENCY: 128.822 cycles
cpu0_L2C TOTAL     ACCESS:    1908282  HIT:     517728  MISS:    1390554
cpu0_L2C LOAD      ACCESS:    1635772  HIT:     346979  MISS:    1288793
cpu0_L2C RFO       ACCESS:     114128  HIT:      12986  MISS:     101142
cpu0_L2C PREFETCH  ACCESS:          0  HIT:          0  MISS:          0
cpu0_L2C WRITEBACK ACCESS:     157587  HIT:     157290  MISS:        297
cpu0_L2C TRANSLATION ACCESS:        795  HIT:        473  MISS:        322
cpu0_L2C PREFETCH  REQUESTED:          0  ISSUED:          0  USEFUL:          0  USELESS:          0
cpu0_L2C AVERAGE MISS LATENCY: 148.341 cycles
LLC TOTAL     ACCESS:    1524792  HIT:     636550  MISS:     888242
LLC LOAD      ACCESS:    1288793  HIT:     480257  MISS:     808536
LLC RFO       ACCESS:     101142  HIT:      53181  MISS:      47961
LLC PREFETCH  ACCESS:          0  HIT:          0  MISS:          0
LLC WRITEBACK ACCESS:     134535  HIT:     102837  MISS:      31698
LLC TRANSLATION ACCESS:        322  HIT:        275  MISS:         47
LLC PREFETCH  REQUESTED:          0  ISSUED:          0  USEFUL:          0  USELESS:          0
LLC AVERAGE MISS LATENCY: 199.355 cycles
OPTgen accesses: 23985
OPTgen hits: 11608
OPTgen hit rate: 48.3969



DRAM Statistics
 CHANNEL 0
 RQ ROW_BUFFER_HIT:      93915  ROW_BUFFER_MISS:     761906
 DBUS AVG_CONGESTED_CYCLE:    3.86119
 WQ ROW_BUFFER_HIT:      13986  ROW_BUFFER_MISS:      44208  FULL:       1087


CPU 0 Branch Prediction Accuracy: 91.645% MPKI: 7.87682 Average ROB Occupancy at Mispredict: 160.509
Branch type MPKI
BRANCH_DIRECT_JUMP: 0.0017
BRANCH_INDIRECT: 0.00111
BRANCH_CONDITIONAL: 7.87013
BRANCH_DIRECT_CALL: 0.00166
BRANCH_INDIRECT_CALL: 0.0005
BRANCH_RETURN: 0.00172

