
*** ChampSim Multicore Out-of-Order Simulator ***

Warmup Instructions: 10000000
Simulation Instructions: 100000000
Number of CPUs: 1
Off-chip DRAM Size: 4 GiB Channels: 1 Width: 64-bit Data Rate: 3200 MT/s

VirtualMemory physical capacity: 8588881920 num_ppages: 2096895
VirtualMemory page size: 4096 log2_page_size: 12

CPU 0 runs /datasets/cs240c-wi22-a00-public/data/Assignment2/milc_744B.trace.xz
CPU 0 Bimodal branch predictor
Basic BTB sets: 1024 ways: 8 indirect buffer size: 4096 RAS size: 64
Initialize Hawkeye state
Heartbeat CPU 0 instructions: 10000000 cycles: 2597395 heartbeat IPC: 3.85001 cumulative IPC: 3.85001 (Simulation time: 0 hr 0 min 37 sec) 

Warmup complete CPU 0 instructions: 10000005 cycles: 2597401 (Simulation time: 0 hr 0 min 37 sec) 

Heartbeat CPU 0 instructions: 20000003 cycles: 16289173 heartbeat IPC: 0.730366 cumulative IPC: 0.730366 (Simulation time: 0 hr 1 min 47 sec) 
Heartbeat CPU 0 instructions: 30000000 cycles: 30008388 heartbeat IPC: 0.728904 cumulative IPC: 0.729634 (Simulation time: 0 hr 2 min 56 sec) 
Heartbeat CPU 0 instructions: 40000001 cycles: 43756503 heartbeat IPC: 0.727373 cumulative IPC: 0.728879 (Simulation time: 0 hr 4 min 4 sec) 
Heartbeat CPU 0 instructions: 50000000 cycles: 57494697 heartbeat IPC: 0.727898 cumulative IPC: 0.728633 (Simulation time: 0 hr 5 min 12 sec) 
Heartbeat CPU 0 instructions: 60000000 cycles: 71219467 heartbeat IPC: 0.72861 cumulative IPC: 0.728629 (Simulation time: 0 hr 6 min 22 sec) 
Heartbeat CPU 0 instructions: 70000002 cycles: 84961626 heartbeat IPC: 0.727688 cumulative IPC: 0.728472 (Simulation time: 0 hr 7 min 31 sec) 
Heartbeat CPU 0 instructions: 80000003 cycles: 98597212 heartbeat IPC: 0.733375 cumulative IPC: 0.729168 (Simulation time: 0 hr 8 min 41 sec) 
Heartbeat CPU 0 instructions: 90000002 cycles: 112282428 heartbeat IPC: 0.730715 cumulative IPC: 0.729361 (Simulation time: 0 hr 9 min 51 sec) 
Heartbeat CPU 0 instructions: 100000002 cycles: 146677573 heartbeat IPC: 0.290739 cumulative IPC: 0.624652 (Simulation time: 0 hr 16 min 1 sec) 
Heartbeat CPU 0 instructions: 110000004 cycles: 157020747 heartbeat IPC: 0.966821 cumulative IPC: 0.64757 (Simulation time: 0 hr 17 min 2 sec) 
Finished CPU 0 instructions: 100000004 cycles: 154423347 cumulative IPC: 0.64757 (Simulation time: 0 hr 17 min 2 sec) 

ChampSim completed all CPUs

Region of Interest Statistics

CPU 0 cumulative IPC: 0.64757 instructions: 100000004 cycles: 154423347
cpu0_DTLB TOTAL     ACCESS:   13558738  HIT:   13423954  MISS:     134784
cpu0_DTLB LOAD      ACCESS:   10517082  HIT:   10388925  MISS:     128157
cpu0_DTLB RFO       ACCESS:    3041656  HIT:    3035029  MISS:       6627
cpu0_DTLB PREFETCH  ACCESS:          0  HIT:          0  MISS:          0
cpu0_DTLB WRITEBACK ACCESS:          0  HIT:          0  MISS:          0
cpu0_DTLB TRANSLATION ACCESS:          0  HIT:          0  MISS:          0
cpu0_DTLB PREFETCH  REQUESTED:          0  ISSUED:          0  USEFUL:          0  USELESS:          0
cpu0_DTLB AVERAGE MISS LATENCY: 148.042 cycles
cpu0_ITLB TOTAL     ACCESS:    8135555  HIT:    8135550  MISS:          5
cpu0_ITLB LOAD      ACCESS:    8135555  HIT:    8135550  MISS:          5
cpu0_ITLB RFO       ACCESS:          0  HIT:          0  MISS:          0
cpu0_ITLB PREFETCH  ACCESS:          0  HIT:          0  MISS:          0
cpu0_ITLB WRITEBACK ACCESS:          0  HIT:          0  MISS:          0
cpu0_ITLB TRANSLATION ACCESS:          0  HIT:          0  MISS:          0
cpu0_ITLB PREFETCH  REQUESTED:          0  ISSUED:          0  USEFUL:          0  USELESS:          0
cpu0_ITLB AVERAGE MISS LATENCY: 219.2 cycles
cpu0_L1I TOTAL     ACCESS:     365359  HIT:     365312  MISS:         47
cpu0_L1I LOAD      ACCESS:     365359  HIT:     365312  MISS:         47
cpu0_L1I RFO       ACCESS:          0  HIT:          0  MISS:          0
cpu0_L1I PREFETCH  ACCESS:          0  HIT:          0  MISS:          0
cpu0_L1I WRITEBACK ACCESS:          0  HIT:          0  MISS:          0
cpu0_L1I TRANSLATION ACCESS:          0  HIT:          0  MISS:          0
cpu0_L1I PREFETCH  REQUESTED:          0  ISSUED:          0  USEFUL:          0  USELESS:          0
cpu0_L1I AVERAGE MISS LATENCY: 363 cycles
cpu0_STLB TOTAL     ACCESS:     134789  HIT:       2588  MISS:     132201
cpu0_STLB LOAD      ACCESS:     128162  HIT:       2578  MISS:     125584
cpu0_STLB RFO       ACCESS:       6627  HIT:         10  MISS:       6617
cpu0_STLB PREFETCH  ACCESS:          0  HIT:          0  MISS:          0
cpu0_STLB WRITEBACK ACCESS:          0  HIT:          0  MISS:          0
cpu0_STLB TRANSLATION ACCESS:          0  HIT:          0  MISS:          0
cpu0_STLB PREFETCH  REQUESTED:          0  ISSUED:          0  USEFUL:          0  USELESS:          0
cpu0_STLB AVERAGE MISS LATENCY: 141.756 cycles
cpu0_L1D TOTAL     ACCESS:   13087484  HIT:   11342547  MISS:    1744937
cpu0_L1D LOAD      ACCESS:    6799127  HIT:    5477874  MISS:    1321253
cpu0_L1D RFO       ACCESS:    6157411  HIT:    5734111  MISS:     423300
cpu0_L1D PREFETCH  ACCESS:          0  HIT:          0  MISS:          0
cpu0_L1D WRITEBACK ACCESS:          0  HIT:          0  MISS:          0
cpu0_L1D TRANSLATION ACCESS:     130946  HIT:     130562  MISS:        384
cpu0_L1D PREFETCH  REQUESTED:          0  ISSUED:          0  USEFUL:          0  USELESS:          0
cpu0_L1D AVERAGE MISS LATENCY: 418.38 cycles
cpu0_L2C TOTAL     ACCESS:    2446394  HIT:     701423  MISS:    1744971
cpu0_L2C LOAD      ACCESS:    1321300  HIT:          0  MISS:    1321300
cpu0_L2C RFO       ACCESS:     423300  HIT:          0  MISS:     423300
cpu0_L2C PREFETCH  ACCESS:          0  HIT:          0  MISS:          0
cpu0_L2C WRITEBACK ACCESS:     701410  HIT:     701404  MISS:          6
cpu0_L2C TRANSLATION ACCESS:        384  HIT:         19  MISS:        365
cpu0_L2C PREFETCH  REQUESTED:          0  ISSUED:          0  USEFUL:          0  USELESS:          0
cpu0_L2C AVERAGE MISS LATENCY: 407.313 cycles
LLC TOTAL     ACCESS:    2446271  HIT:      58113  MISS:    2388158
LLC LOAD      ACCESS:    1321300  HIT:       1687  MISS:    1319613
LLC RFO       ACCESS:     423300  HIT:       1721  MISS:     421579
LLC PREFETCH  ACCESS:          0  HIT:          0  MISS:          0
LLC WRITEBACK ACCESS:     701306  HIT:      54649  MISS:     646657
LLC TRANSLATION ACCESS:        365  HIT:         56  MISS:        309
LLC PREFETCH  REQUESTED:          0  ISSUED:          0  USEFUL:          0  USELESS:          0
LLC AVERAGE MISS LATENCY: 282.27 cycles
OPTgen accesses: 29494
OPTgen hits: 504
OPTgen hit rate: 1.70882



DRAM Statistics
 CHANNEL 0
 RQ ROW_BUFFER_HIT:     186671  ROW_BUFFER_MISS:    1554827
 DBUS AVG_CONGESTED_CYCLE:    3.95628
 WQ ROW_BUFFER_HIT:      83935  ROW_BUFFER_MISS:     618232  FULL:          0


CPU 0 Branch Prediction Accuracy: 77.9348% MPKI: 4.47835 Average ROB Occupancy at Mispredict: 303.042
Branch type MPKI
BRANCH_DIRECT_JUMP: 5e-05
BRANCH_INDIRECT: 0
BRANCH_CONDITIONAL: 4.47814
BRANCH_DIRECT_CALL: 8e-05
BRANCH_INDIRECT_CALL: 0
BRANCH_RETURN: 8e-05

