
*** ChampSim Multicore Out-of-Order Simulator ***

Warmup Instructions: 10000000
Simulation Instructions: 100000000
Number of CPUs: 1
Off-chip DRAM Size: 4 GiB Channels: 1 Width: 64-bit Data Rate: 3200 MT/s

VirtualMemory physical capacity: 8588881920 num_ppages: 2096895
VirtualMemory page size: 4096 log2_page_size: 12

CPU 0 runs /datasets/cs240c-wi22-a00-public/data/Assignment2/wrf_1650B.trace.xz
CPU 0 Bimodal branch predictor
Basic BTB sets: 1024 ways: 8 indirect buffer size: 4096 RAS size: 64
Initialize Hawkeye state
Heartbeat CPU 0 instructions: 10000001 cycles: 2500100 heartbeat IPC: 3.99984 cumulative IPC: 3.99984 (Simulation time: 0 hr 0 min 25 sec) 

Warmup complete CPU 0 instructions: 10000001 cycles: 2500100 (Simulation time: 0 hr 0 min 25 sec) 

Heartbeat CPU 0 instructions: 20000004 cycles: 12137577 heartbeat IPC: 1.03762 cumulative IPC: 1.03762 (Simulation time: 0 hr 1 min 20 sec) 
Heartbeat CPU 0 instructions: 30000000 cycles: 21774170 heartbeat IPC: 1.03771 cumulative IPC: 1.03766 (Simulation time: 0 hr 2 min 14 sec) 
Heartbeat CPU 0 instructions: 40000002 cycles: 31416863 heartbeat IPC: 1.03705 cumulative IPC: 1.03746 (Simulation time: 0 hr 3 min 8 sec) 
Heartbeat CPU 0 instructions: 50000000 cycles: 47967570 heartbeat IPC: 0.604204 cumulative IPC: 0.87975 (Simulation time: 0 hr 4 min 39 sec) 
Heartbeat CPU 0 instructions: 60000000 cycles: 60682600 heartbeat IPC: 0.786471 cumulative IPC: 0.859365 (Simulation time: 0 hr 6 min 23 sec) 
Heartbeat CPU 0 instructions: 70000002 cycles: 76691178 heartbeat IPC: 0.624665 cumulative IPC: 0.808723 (Simulation time: 0 hr 7 min 56 sec) 
Heartbeat CPU 0 instructions: 80000004 cycles: 92453847 heartbeat IPC: 0.63441 cumulative IPC: 0.778178 (Simulation time: 0 hr 9 min 20 sec) 
Heartbeat CPU 0 instructions: 90000000 cycles: 107491724 heartbeat IPC: 0.664987 cumulative IPC: 0.761966 (Simulation time: 0 hr 10 min 44 sec) 
Heartbeat CPU 0 instructions: 100000004 cycles: 127593308 heartbeat IPC: 0.497473 cumulative IPC: 0.719464 (Simulation time: 0 hr 12 min 41 sec) 
Heartbeat CPU 0 instructions: 110000004 cycles: 145792091 heartbeat IPC: 0.549487 cumulative IPC: 0.697876 (Simulation time: 0 hr 14 min 26 sec) 
Finished CPU 0 instructions: 100000003 cycles: 143291991 cumulative IPC: 0.697876 (Simulation time: 0 hr 14 min 26 sec) 

ChampSim completed all CPUs

Region of Interest Statistics

CPU 0 cumulative IPC: 0.697876 instructions: 100000003 cycles: 143291991
cpu0_DTLB TOTAL     ACCESS:   16180173  HIT:   16149410  MISS:      30763
cpu0_DTLB LOAD      ACCESS:   14759607  HIT:   14735587  MISS:      24020
cpu0_DTLB RFO       ACCESS:    1420566  HIT:    1413823  MISS:       6743
cpu0_DTLB PREFETCH  ACCESS:          0  HIT:          0  MISS:          0
cpu0_DTLB WRITEBACK ACCESS:          0  HIT:          0  MISS:          0
cpu0_DTLB TRANSLATION ACCESS:          0  HIT:          0  MISS:          0
cpu0_DTLB PREFETCH  REQUESTED:          0  ISSUED:          0  USEFUL:          0  USELESS:          0
cpu0_DTLB AVERAGE MISS LATENCY: 145.427 cycles
cpu0_ITLB TOTAL     ACCESS:    6815949  HIT:    6815922  MISS:         27
cpu0_ITLB LOAD      ACCESS:    6815949  HIT:    6815922  MISS:         27
cpu0_ITLB RFO       ACCESS:          0  HIT:          0  MISS:          0
cpu0_ITLB PREFETCH  ACCESS:          0  HIT:          0  MISS:          0
cpu0_ITLB WRITEBACK ACCESS:          0  HIT:          0  MISS:          0
cpu0_ITLB TRANSLATION ACCESS:          0  HIT:          0  MISS:          0
cpu0_ITLB PREFETCH  REQUESTED:          0  ISSUED:          0  USEFUL:          0  USELESS:          0
cpu0_ITLB AVERAGE MISS LATENCY: 240.519 cycles
cpu0_L1I TOTAL     ACCESS:    1672723  HIT:    1672179  MISS:        544
cpu0_L1I LOAD      ACCESS:    1672723  HIT:    1672179  MISS:        544
cpu0_L1I RFO       ACCESS:          0  HIT:          0  MISS:          0
cpu0_L1I PREFETCH  ACCESS:          0  HIT:          0  MISS:          0
cpu0_L1I WRITEBACK ACCESS:          0  HIT:          0  MISS:          0
cpu0_L1I TRANSLATION ACCESS:          0  HIT:          0  MISS:          0
cpu0_L1I PREFETCH  REQUESTED:          0  ISSUED:          0  USEFUL:          0  USELESS:          0
cpu0_L1I AVERAGE MISS LATENCY: 365.574 cycles
cpu0_STLB TOTAL     ACCESS:      30790  HIT:      16560  MISS:      14230
cpu0_STLB LOAD      ACCESS:      24047  HIT:      13007  MISS:      11040
cpu0_STLB RFO       ACCESS:       6743  HIT:       3553  MISS:       3190
cpu0_STLB PREFETCH  ACCESS:          0  HIT:          0  MISS:          0
cpu0_STLB WRITEBACK ACCESS:          0  HIT:          0  MISS:          0
cpu0_STLB TRANSLATION ACCESS:          0  HIT:          0  MISS:          0
cpu0_STLB PREFETCH  REQUESTED:          0  ISSUED:          0  USEFUL:          0  USELESS:          0
cpu0_STLB AVERAGE MISS LATENCY: 295.374 cycles
cpu0_L1D TOTAL     ACCESS:   14674473  HIT:   13642303  MISS:    1032170
cpu0_L1D LOAD      ACCESS:   12386327  HIT:   11568839  MISS:     817488
cpu0_L1D RFO       ACCESS:    2275275  HIT:    2061167  MISS:     214108
cpu0_L1D PREFETCH  ACCESS:          0  HIT:          0  MISS:          0
cpu0_L1D WRITEBACK ACCESS:          0  HIT:          0  MISS:          0
cpu0_L1D TRANSLATION ACCESS:      12871  HIT:      12297  MISS:        574
cpu0_L1D PREFETCH  REQUESTED:          0  ISSUED:          0  USEFUL:          0  USELESS:          0
cpu0_L1D AVERAGE MISS LATENCY: 236.298 cycles
cpu0_L2C TOTAL     ACCESS:    1279032  HIT:     490190  MISS:     788842
cpu0_L2C LOAD      ACCESS:     818015  HIT:     229609  MISS:     588406
cpu0_L2C RFO       ACCESS:     214104  HIT:      13795  MISS:     200309
cpu0_L2C PREFETCH  ACCESS:          0  HIT:          0  MISS:          0
cpu0_L2C WRITEBACK ACCESS:     246339  HIT:     246256  MISS:         83
cpu0_L2C TRANSLATION ACCESS:        574  HIT:        530  MISS:         44
cpu0_L2C PREFETCH  REQUESTED:          0  ISSUED:          0  USEFUL:          0  USELESS:          0
cpu0_L2C AVERAGE MISS LATENCY: 295.03 cycles
LLC TOTAL     ACCESS:    1004485  HIT:     115623  MISS:     888862
LLC LOAD      ACCESS:     588405  HIT:      32305  MISS:     556100
LLC RFO       ACCESS:     200309  HIT:         61  MISS:     200248
LLC PREFETCH  ACCESS:          0  HIT:          0  MISS:          0
LLC WRITEBACK ACCESS:     215727  HIT:      83244  MISS:     132483
LLC TRANSLATION ACCESS:         44  HIT:         13  MISS:         31
LLC PREFETCH  REQUESTED:          0  ISSUED:          0  USEFUL:          0  USELESS:          0
LLC AVERAGE MISS LATENCY: 243.197 cycles
OPTgen accesses: 12591
OPTgen hits: 251
OPTgen hit rate: 1.99349



DRAM Statistics
 CHANNEL 0
 RQ ROW_BUFFER_HIT:      26265  ROW_BUFFER_MISS:     730093
 DBUS AVG_CONGESTED_CYCLE:     3.9317
 WQ ROW_BUFFER_HIT:      34261  ROW_BUFFER_MISS:     173691  FULL:          0


CPU 0 Branch Prediction Accuracy: 83.2596% MPKI: 18.9931 Average ROB Occupancy at Mispredict: 252.538
Branch type MPKI
BRANCH_DIRECT_JUMP: 0.0005
BRANCH_INDIRECT: 0
BRANCH_CONDITIONAL: 18.9921
BRANCH_DIRECT_CALL: 0.00023
BRANCH_INDIRECT_CALL: 0
BRANCH_RETURN: 0.00022

