
*** ChampSim Multicore Out-of-Order Simulator ***

Warmup Instructions: 10000000
Simulation Instructions: 100000000
Number of CPUs: 1
Off-chip DRAM Size: 4 GiB Channels: 1 Width: 64-bit Data Rate: 3200 MT/s

VirtualMemory physical capacity: 8588881920 num_ppages: 2096895
VirtualMemory page size: 4096 log2_page_size: 12

CPU 0 runs /datasets/cs240c-wi22-a00-public/data/Assignment2/mcf_250B.trace.xz
CPU 0 Bimodal branch predictor
Basic BTB sets: 1024 ways: 8 indirect buffer size: 4096 RAS size: 64
Initialize Hawkeye state
Heartbeat CPU 0 instructions: 10000004 cycles: 3834272 heartbeat IPC: 2.60806 cumulative IPC: 2.60806 (Simulation time: 0 hr 0 min 47 sec) 

Warmup complete CPU 0 instructions: 10000004 cycles: 3834272 (Simulation time: 0 hr 0 min 47 sec) 

Heartbeat CPU 0 instructions: 20000000 cycles: 147046812 heartbeat IPC: 0.0698263 cumulative IPC: 0.0698263 (Simulation time: 0 hr 4 min 38 sec) 
Heartbeat CPU 0 instructions: 30000000 cycles: 285224921 heartbeat IPC: 0.0723704 cumulative IPC: 0.0710756 (Simulation time: 0 hr 8 min 21 sec) 
Heartbeat CPU 0 instructions: 40000000 cycles: 435255322 heartbeat IPC: 0.0666532 cumulative IPC: 0.0695376 (Simulation time: 0 hr 12 min 16 sec) 
Heartbeat CPU 0 instructions: 50000000 cycles: 576626406 heartbeat IPC: 0.0707358 cumulative IPC: 0.0698334 (Simulation time: 0 hr 16 min 5 sec) 
Heartbeat CPU 0 instructions: 60000000 cycles: 717470705 heartbeat IPC: 0.0710004 cumulative IPC: 0.0700637 (Simulation time: 0 hr 19 min 55 sec) 
Heartbeat CPU 0 instructions: 70000000 cycles: 851216941 heartbeat IPC: 0.0747685 cumulative IPC: 0.0708063 (Simulation time: 0 hr 23 min 38 sec) 
Heartbeat CPU 0 instructions: 80000000 cycles: 994838931 heartbeat IPC: 0.0696272 cumulative IPC: 0.0706354 (Simulation time: 0 hr 27 min 37 sec) 
Heartbeat CPU 0 instructions: 90000000 cycles: 1121405882 heartbeat IPC: 0.0790096 cumulative IPC: 0.0715838 (Simulation time: 0 hr 31 min 10 sec) 
Heartbeat CPU 0 instructions: 100000000 cycles: 1260928086 heartbeat IPC: 0.0716732 cumulative IPC: 0.0715937 (Simulation time: 0 hr 35 min 0 sec) 
Heartbeat CPU 0 instructions: 110000000 cycles: 1404284823 heartbeat IPC: 0.0697561 cumulative IPC: 0.0714056 (Simulation time: 0 hr 38 min 42 sec) 
Finished CPU 0 instructions: 100000000 cycles: 1400450562 cumulative IPC: 0.0714056 (Simulation time: 0 hr 38 min 42 sec) 

ChampSim completed all CPUs

Region of Interest Statistics

CPU 0 cumulative IPC: 0.0714056 instructions: 100000000 cycles: 1400450562
cpu0_DTLB TOTAL     ACCESS:   20765972  HIT:    2975649  MISS:   17790323
cpu0_DTLB LOAD      ACCESS:   20270778  HIT:    2536346  MISS:   17734432
cpu0_DTLB RFO       ACCESS:     495194  HIT:     439303  MISS:      55891
cpu0_DTLB PREFETCH  ACCESS:          0  HIT:          0  MISS:          0
cpu0_DTLB WRITEBACK ACCESS:          0  HIT:          0  MISS:          0
cpu0_DTLB TRANSLATION ACCESS:          0  HIT:          0  MISS:          0
cpu0_DTLB PREFETCH  REQUESTED:          0  ISSUED:          0  USEFUL:          0  USELESS:          0
cpu0_DTLB AVERAGE MISS LATENCY: 11.931 cycles
cpu0_ITLB TOTAL     ACCESS:   11315056  HIT:   11315056  MISS:          0
cpu0_ITLB LOAD      ACCESS:   11315056  HIT:   11315056  MISS:          0
cpu0_ITLB RFO       ACCESS:          0  HIT:          0  MISS:          0
cpu0_ITLB PREFETCH  ACCESS:          0  HIT:          0  MISS:          0
cpu0_ITLB WRITEBACK ACCESS:          0  HIT:          0  MISS:          0
cpu0_ITLB TRANSLATION ACCESS:          0  HIT:          0  MISS:          0
cpu0_ITLB PREFETCH  REQUESTED:          0  ISSUED:          0  USEFUL:          0  USELESS:          0
cpu0_ITLB AVERAGE MISS LATENCY: -nan cycles
cpu0_L1I TOTAL     ACCESS:          4  HIT:          4  MISS:          0
cpu0_L1I LOAD      ACCESS:          4  HIT:          4  MISS:          0
cpu0_L1I RFO       ACCESS:          0  HIT:          0  MISS:          0
cpu0_L1I PREFETCH  ACCESS:          0  HIT:          0  MISS:          0
cpu0_L1I WRITEBACK ACCESS:          0  HIT:          0  MISS:          0
cpu0_L1I TRANSLATION ACCESS:          0  HIT:          0  MISS:          0
cpu0_L1I PREFETCH  REQUESTED:          0  ISSUED:          0  USEFUL:          0  USELESS:          0
cpu0_L1I AVERAGE MISS LATENCY: -nan cycles
cpu0_STLB TOTAL     ACCESS:   17790323  HIT:   17413189  MISS:     377134
cpu0_STLB LOAD      ACCESS:   17734432  HIT:   17359434  MISS:     374998
cpu0_STLB RFO       ACCESS:      55891  HIT:      53755  MISS:       2136
cpu0_STLB PREFETCH  ACCESS:          0  HIT:          0  MISS:          0
cpu0_STLB WRITEBACK ACCESS:          0  HIT:          0  MISS:          0
cpu0_STLB TRANSLATION ACCESS:          0  HIT:          0  MISS:          0
cpu0_STLB PREFETCH  REQUESTED:          0  ISSUED:          0  USEFUL:          0  USELESS:          0
cpu0_STLB AVERAGE MISS LATENCY: 138.235 cycles
cpu0_L1D TOTAL     ACCESS:   21383807  HIT:    3439893  MISS:   17943914
cpu0_L1D LOAD      ACCESS:   20343122  HIT:    2559139  MISS:   17783983
cpu0_L1D RFO       ACCESS:     664707  HIT:     633047  MISS:      31660
cpu0_L1D PREFETCH  ACCESS:          0  HIT:          0  MISS:          0
cpu0_L1D WRITEBACK ACCESS:          0  HIT:          0  MISS:          0
cpu0_L1D TRANSLATION ACCESS:     375978  HIT:     247707  MISS:     128271
cpu0_L1D PREFETCH  REQUESTED:          0  ISSUED:          0  USEFUL:          0  USELESS:          0
cpu0_L1D AVERAGE MISS LATENCY: 230.298 cycles
cpu0_L2C TOTAL     ACCESS:   18302611  HIT:    5792363  MISS:   12510248
cpu0_L2C LOAD      ACCESS:   17783955  HIT:    5386597  MISS:   12397358
cpu0_L2C RFO       ACCESS:      31659  HIT:       9144  MISS:      22515
cpu0_L2C PREFETCH  ACCESS:          0  HIT:          0  MISS:          0
cpu0_L2C WRITEBACK ACCESS:     358726  HIT:     358724  MISS:          2
cpu0_L2C TRANSLATION ACCESS:     128271  HIT:      37898  MISS:      90373
cpu0_L2C PREFETCH  REQUESTED:          0  ISSUED:          0  USEFUL:          0  USELESS:          0
cpu0_L2C AVERAGE MISS LATENCY: 314.536 cycles
LLC TOTAL     ACCESS:   12800273  HIT:    5767306  MISS:    7032967
LLC LOAD      ACCESS:   12397358  HIT:    5575149  MISS:    6822209
LLC RFO       ACCESS:      22515  HIT:      11502  MISS:      11013
LLC PREFETCH  ACCESS:          0  HIT:          0  MISS:          0
LLC WRITEBACK ACCESS:     290027  HIT:     168925  MISS:     121102
LLC TRANSLATION ACCESS:      90373  HIT:      11730  MISS:      78643
LLC PREFETCH  REQUESTED:          0  ISSUED:          0  USEFUL:          0  USELESS:          0
LLC AVERAGE MISS LATENCY: 522.142 cycles
OPTgen accesses: 215309
OPTgen hits: 97501
OPTgen hit rate: 45.2842



DRAM Statistics
 CHANNEL 0
 RQ ROW_BUFFER_HIT:      41624  ROW_BUFFER_MISS:    6870099
 DBUS AVG_CONGESTED_CYCLE:    3.96265
 WQ ROW_BUFFER_HIT:      11644  ROW_BUFFER_MISS:     204351  FULL:          0


CPU 0 Branch Prediction Accuracy: 91.6559% MPKI: 25.5287 Average ROB Occupancy at Mispredict: 24.4722
Branch type MPKI
BRANCH_DIRECT_JUMP: 2e-05
BRANCH_INDIRECT: 0
BRANCH_CONDITIONAL: 25.5287
BRANCH_DIRECT_CALL: 0
BRANCH_INDIRECT_CALL: 0
BRANCH_RETURN: 0

