
*** ChampSim Multicore Out-of-Order Simulator ***

Warmup Instructions: 10000000
Simulation Instructions: 100000000
Number of CPUs: 1
Off-chip DRAM Size: 4 GiB Channels: 1 Width: 64-bit Data Rate: 3200 MT/s

VirtualMemory physical capacity: 8588881920 num_ppages: 2096895
VirtualMemory page size: 4096 log2_page_size: 12

CPU 0 runs /datasets/cs240c-wi22-a00-public/data/Assignment2/leslie3d_1186B.trace.xz
CPU 0 Bimodal branch predictor
Basic BTB sets: 1024 ways: 8 indirect buffer size: 4096 RAS size: 64
Initialize Hawkeye state
Heartbeat CPU 0 instructions: 10000000 cycles: 4308744 heartbeat IPC: 2.32086 cumulative IPC: 2.32086 (Simulation time: 0 hr 1 min 6 sec) 

Warmup complete CPU 0 instructions: 10000005 cycles: 4308745 (Simulation time: 0 hr 1 min 6 sec) 

Heartbeat CPU 0 instructions: 20000000 cycles: 18012277 heartbeat IPC: 0.729739 cumulative IPC: 0.729739 (Simulation time: 0 hr 2 min 59 sec) 
Heartbeat CPU 0 instructions: 30000000 cycles: 31385715 heartbeat IPC: 0.747751 cumulative IPC: 0.738635 (Simulation time: 0 hr 4 min 48 sec) 
Heartbeat CPU 0 instructions: 40000004 cycles: 44778857 heartbeat IPC: 0.746651 cumulative IPC: 0.741288 (Simulation time: 0 hr 6 min 40 sec) 
Heartbeat CPU 0 instructions: 50000001 cycles: 60978267 heartbeat IPC: 0.617306 cumulative IPC: 0.705847 (Simulation time: 0 hr 8 min 33 sec) 
Heartbeat CPU 0 instructions: 60000000 cycles: 96387171 heartbeat IPC: 0.282415 cumulative IPC: 0.543015 (Simulation time: 0 hr 11 min 56 sec) 
Heartbeat CPU 0 instructions: 70000000 cycles: 125263840 heartbeat IPC: 0.3463 cumulative IPC: 0.496052 (Simulation time: 0 hr 14 min 52 sec) 
Heartbeat CPU 0 instructions: 80000003 cycles: 135663785 heartbeat IPC: 0.961544 cumulative IPC: 0.532907 (Simulation time: 0 hr 16 min 30 sec) 
Heartbeat CPU 0 instructions: 90000002 cycles: 145949438 heartbeat IPC: 0.972228 cumulative IPC: 0.564809 (Simulation time: 0 hr 18 min 10 sec) 
Heartbeat CPU 0 instructions: 100000000 cycles: 156242204 heartbeat IPC: 0.971556 cumulative IPC: 0.592365 (Simulation time: 0 hr 19 min 48 sec) 
Heartbeat CPU 0 instructions: 110000000 cycles: 166578330 heartbeat IPC: 0.96748 cumulative IPC: 0.616258 (Simulation time: 0 hr 21 min 29 sec) 
Finished CPU 0 instructions: 100000000 cycles: 162269586 cumulative IPC: 0.616258 (Simulation time: 0 hr 21 min 29 sec) 

ChampSim completed all CPUs

Region of Interest Statistics

CPU 0 cumulative IPC: 0.616258 instructions: 100000000 cycles: 162269586
cpu0_DTLB TOTAL     ACCESS:   27968478  HIT:   27870870  MISS:      97608
cpu0_DTLB LOAD      ACCESS:   23295545  HIT:   23209687  MISS:      85858
cpu0_DTLB RFO       ACCESS:    4672933  HIT:    4661183  MISS:      11750
cpu0_DTLB PREFETCH  ACCESS:          0  HIT:          0  MISS:          0
cpu0_DTLB WRITEBACK ACCESS:          0  HIT:          0  MISS:          0
cpu0_DTLB TRANSLATION ACCESS:          0  HIT:          0  MISS:          0
cpu0_DTLB PREFETCH  REQUESTED:          0  ISSUED:          0  USEFUL:          0  USELESS:          0
cpu0_DTLB AVERAGE MISS LATENCY: 53.0631 cycles
cpu0_ITLB TOTAL     ACCESS:    2887290  HIT:    2887277  MISS:         13
cpu0_ITLB LOAD      ACCESS:    2887290  HIT:    2887277  MISS:         13
cpu0_ITLB RFO       ACCESS:          0  HIT:          0  MISS:          0
cpu0_ITLB PREFETCH  ACCESS:          0  HIT:          0  MISS:          0
cpu0_ITLB WRITEBACK ACCESS:          0  HIT:          0  MISS:          0
cpu0_ITLB TRANSLATION ACCESS:          0  HIT:          0  MISS:          0
cpu0_ITLB PREFETCH  REQUESTED:          0  ISSUED:          0  USEFUL:          0  USELESS:          0
cpu0_ITLB AVERAGE MISS LATENCY: 294.231 cycles
cpu0_L1I TOTAL     ACCESS:    1735774  HIT:    1735394  MISS:        380
cpu0_L1I LOAD      ACCESS:    1735774  HIT:    1735394  MISS:        380
cpu0_L1I RFO       ACCESS:          0  HIT:          0  MISS:          0
cpu0_L1I PREFETCH  ACCESS:          0  HIT:          0  MISS:          0
cpu0_L1I WRITEBACK ACCESS:          0  HIT:          0  MISS:          0
cpu0_L1I TRANSLATION ACCESS:          0  HIT:          0  MISS:          0
cpu0_L1I PREFETCH  REQUESTED:          0  ISSUED:          0  USEFUL:          0  USELESS:          0
cpu0_L1I AVERAGE MISS LATENCY: 334.3 cycles
cpu0_STLB TOTAL     ACCESS:      97621  HIT:      70219  MISS:      27402
cpu0_STLB LOAD      ACCESS:      85871  HIT:      63144  MISS:      22727
cpu0_STLB RFO       ACCESS:      11750  HIT:       7075  MISS:       4675
cpu0_STLB PREFETCH  ACCESS:          0  HIT:          0  MISS:          0
cpu0_STLB WRITEBACK ACCESS:          0  HIT:          0  MISS:          0
cpu0_STLB TRANSLATION ACCESS:          0  HIT:          0  MISS:          0
cpu0_STLB PREFETCH  REQUESTED:          0  ISSUED:          0  USEFUL:          0  USELESS:          0
cpu0_STLB AVERAGE MISS LATENCY: 157.037 cycles
cpu0_L1D TOTAL     ACCESS:   27008066  HIT:   23105328  MISS:    3902738
cpu0_L1D LOAD      ACCESS:   17785117  HIT:   14601342  MISS:    3183775
cpu0_L1D RFO       ACCESS:    9198394  HIT:    8482870  MISS:     715524
cpu0_L1D PREFETCH  ACCESS:          0  HIT:          0  MISS:          0
cpu0_L1D WRITEBACK ACCESS:          0  HIT:          0  MISS:          0
cpu0_L1D TRANSLATION ACCESS:      24555  HIT:      21116  MISS:       3439
cpu0_L1D PREFETCH  REQUESTED:          0  ISSUED:          0  USEFUL:          0  USELESS:          0
cpu0_L1D AVERAGE MISS LATENCY: 355.016 cycles
cpu0_L2C TOTAL     ACCESS:    4956217  HIT:    2398923  MISS:    2557294
cpu0_L2C LOAD      ACCESS:    3184107  HIT:    1036892  MISS:    2147215
cpu0_L2C RFO       ACCESS:     715198  HIT:     307534  MISS:     407664
cpu0_L2C PREFETCH  ACCESS:          0  HIT:          0  MISS:          0
cpu0_L2C WRITEBACK ACCESS:    1053473  HIT:    1051269  MISS:       2204
cpu0_L2C TRANSLATION ACCESS:       3439  HIT:       3228  MISS:        211
cpu0_L2C PREFETCH  REQUESTED:          0  ISSUED:          0  USEFUL:          0  USELESS:          0
cpu0_L2C AVERAGE MISS LATENCY: 525.002 cycles
LLC TOTAL     ACCESS:    3217425  HIT:     870256  MISS:    2347169
LLC LOAD      ACCESS:    2147208  HIT:     553628  MISS:    1593580
LLC RFO       ACCESS:     407653  HIT:     108881  MISS:     298772
LLC PREFETCH  ACCESS:          0  HIT:          0  MISS:          0
LLC WRITEBACK ACCESS:     662353  HIT:     207668  MISS:     454685
LLC TRANSLATION ACCESS:        211  HIT:         79  MISS:        132
LLC PREFETCH  REQUESTED:          0  ISSUED:          0  USEFUL:          0  USELESS:          0
LLC AVERAGE MISS LATENCY: 549.097 cycles
OPTgen accesses: 43406
OPTgen hits: 14146
OPTgen hit rate: 32.59



DRAM Statistics
 CHANNEL 0
 RQ ROW_BUFFER_HIT:     207978  ROW_BUFFER_MISS:    1684210
 DBUS AVG_CONGESTED_CYCLE:     3.9508
 WQ ROW_BUFFER_HIT:      40548  ROW_BUFFER_MISS:     503831  FULL:      22028


CPU 0 Branch Prediction Accuracy: 96.8384% MPKI: 1.47634 Average ROB Occupancy at Mispredict: 311.41
Branch type MPKI
BRANCH_DIRECT_JUMP: 0.00016
BRANCH_INDIRECT: 0
BRANCH_CONDITIONAL: 1.47504
BRANCH_DIRECT_CALL: 0.00057
BRANCH_INDIRECT_CALL: 0
BRANCH_RETURN: 0.00057

