
*** ChampSim Multicore Out-of-Order Simulator ***

Warmup Instructions: 10000000
Simulation Instructions: 100000000
Number of CPUs: 1
Off-chip DRAM Size: 4 GiB Channels: 1 Width: 64-bit Data Rate: 3200 MT/s

VirtualMemory physical capacity: 8588881920 num_ppages: 2096895
VirtualMemory page size: 4096 log2_page_size: 12

CPU 0 runs /datasets/cs240c-wi22-a00-public/data/Assignment2/zeusmp_300B.trace.xz
CPU 0 Bimodal branch predictor
Basic BTB sets: 1024 ways: 8 indirect buffer size: 4096 RAS size: 64
Initialize Hawkeye state
Heartbeat CPU 0 instructions: 10000000 cycles: 2814860 heartbeat IPC: 3.55257 cumulative IPC: 3.55257 (Simulation time: 0 hr 0 min 31 sec) 

Warmup complete CPU 0 instructions: 10000002 cycles: 2814863 (Simulation time: 0 hr 0 min 31 sec) 

Heartbeat CPU 0 instructions: 20000004 cycles: 8482228 heartbeat IPC: 1.76449 cumulative IPC: 1.76449 (Simulation time: 0 hr 1 min 21 sec) 
Heartbeat CPU 0 instructions: 30000004 cycles: 14112874 heartbeat IPC: 1.776 cumulative IPC: 1.77022 (Simulation time: 0 hr 2 min 11 sec) 
Heartbeat CPU 0 instructions: 40000003 cycles: 19719924 heartbeat IPC: 1.78347 cumulative IPC: 1.77462 (Simulation time: 0 hr 3 min 1 sec) 
Heartbeat CPU 0 instructions: 50000004 cycles: 25364181 heartbeat IPC: 1.77171 cumulative IPC: 1.77389 (Simulation time: 0 hr 3 min 51 sec) 
Heartbeat CPU 0 instructions: 60000001 cycles: 30998740 heartbeat IPC: 1.77476 cumulative IPC: 1.77406 (Simulation time: 0 hr 4 min 41 sec) 
Heartbeat CPU 0 instructions: 70000000 cycles: 36588601 heartbeat IPC: 1.78895 cumulative IPC: 1.77653 (Simulation time: 0 hr 5 min 31 sec) 
Heartbeat CPU 0 instructions: 80000000 cycles: 42188133 heartbeat IPC: 1.78586 cumulative IPC: 1.77786 (Simulation time: 0 hr 6 min 21 sec) 
Heartbeat CPU 0 instructions: 90000003 cycles: 47824004 heartbeat IPC: 1.77435 cumulative IPC: 1.77742 (Simulation time: 0 hr 7 min 12 sec) 
Heartbeat CPU 0 instructions: 100000000 cycles: 53434278 heartbeat IPC: 1.78244 cumulative IPC: 1.77797 (Simulation time: 0 hr 8 min 3 sec) 
Heartbeat CPU 0 instructions: 110000000 cycles: 58994079 heartbeat IPC: 1.79863 cumulative IPC: 1.78002 (Simulation time: 0 hr 8 min 54 sec) 
Finished CPU 0 instructions: 100000003 cycles: 56179217 cumulative IPC: 1.78002 (Simulation time: 0 hr 8 min 54 sec) 

ChampSim completed all CPUs

Region of Interest Statistics

CPU 0 cumulative IPC: 1.78002 instructions: 100000003 cycles: 56179217
cpu0_DTLB TOTAL     ACCESS:   16101980  HIT:   15018907  MISS:    1083073
cpu0_DTLB LOAD      ACCESS:   10874719  HIT:    9809404  MISS:    1065315
cpu0_DTLB RFO       ACCESS:    5227261  HIT:    5209503  MISS:      17758
cpu0_DTLB PREFETCH  ACCESS:          0  HIT:          0  MISS:          0
cpu0_DTLB WRITEBACK ACCESS:          0  HIT:          0  MISS:          0
cpu0_DTLB TRANSLATION ACCESS:          0  HIT:          0  MISS:          0
cpu0_DTLB PREFETCH  REQUESTED:          0  ISSUED:          0  USEFUL:          0  USELESS:          0
cpu0_DTLB AVERAGE MISS LATENCY: 10.5348 cycles
cpu0_ITLB TOTAL     ACCESS:    1803992  HIT:    1803992  MISS:          0
cpu0_ITLB LOAD      ACCESS:    1803992  HIT:    1803992  MISS:          0
cpu0_ITLB RFO       ACCESS:          0  HIT:          0  MISS:          0
cpu0_ITLB PREFETCH  ACCESS:          0  HIT:          0  MISS:          0
cpu0_ITLB WRITEBACK ACCESS:          0  HIT:          0  MISS:          0
cpu0_ITLB TRANSLATION ACCESS:          0  HIT:          0  MISS:          0
cpu0_ITLB PREFETCH  REQUESTED:          0  ISSUED:          0  USEFUL:          0  USELESS:          0
cpu0_ITLB AVERAGE MISS LATENCY: -nan cycles
cpu0_L1I TOTAL     ACCESS:    2749678  HIT:    2749678  MISS:          0
cpu0_L1I LOAD      ACCESS:    2749678  HIT:    2749678  MISS:          0
cpu0_L1I RFO       ACCESS:          0  HIT:          0  MISS:          0
cpu0_L1I PREFETCH  ACCESS:          0  HIT:          0  MISS:          0
cpu0_L1I WRITEBACK ACCESS:          0  HIT:          0  MISS:          0
cpu0_L1I TRANSLATION ACCESS:          0  HIT:          0  MISS:          0
cpu0_L1I PREFETCH  REQUESTED:          0  ISSUED:          0  USEFUL:          0  USELESS:          0
cpu0_L1I AVERAGE MISS LATENCY: -nan cycles
cpu0_STLB TOTAL     ACCESS:    1083073  HIT:    1076121  MISS:       6952
cpu0_STLB LOAD      ACCESS:    1065315  HIT:    1060416  MISS:       4899
cpu0_STLB RFO       ACCESS:      17758  HIT:      15705  MISS:       2053
cpu0_STLB PREFETCH  ACCESS:          0  HIT:          0  MISS:          0
cpu0_STLB WRITEBACK ACCESS:          0  HIT:          0  MISS:          0
cpu0_STLB TRANSLATION ACCESS:          0  HIT:          0  MISS:          0
cpu0_STLB PREFETCH  REQUESTED:          0  ISSUED:          0  USEFUL:          0  USELESS:          0
cpu0_STLB AVERAGE MISS LATENCY: 214.28 cycles
cpu0_L1D TOTAL     ACCESS:   18599979  HIT:   17939180  MISS:     660799
cpu0_L1D LOAD      ACCESS:   10915331  HIT:   10434590  MISS:     480741
cpu0_L1D RFO       ACCESS:    7678010  HIT:    7502589  MISS:     175421
cpu0_L1D PREFETCH  ACCESS:          0  HIT:          0  MISS:          0
cpu0_L1D WRITEBACK ACCESS:          0  HIT:          0  MISS:          0
cpu0_L1D TRANSLATION ACCESS:       6638  HIT:       2001  MISS:       4637
cpu0_L1D PREFETCH  REQUESTED:          0  ISSUED:          0  USEFUL:          0  USELESS:          0
cpu0_L1D AVERAGE MISS LATENCY: 137.304 cycles
cpu0_L2C TOTAL     ACCESS:     838872  HIT:     409946  MISS:     428926
cpu0_L2C LOAD      ACCESS:     480714  HIT:     197410  MISS:     283304
cpu0_L2C RFO       ACCESS:     175374  HIT:      34918  MISS:     140456
cpu0_L2C PREFETCH  ACCESS:          0  HIT:          0  MISS:          0
cpu0_L2C WRITEBACK ACCESS:     178147  HIT:     173215  MISS:       4932
cpu0_L2C TRANSLATION ACCESS:       4637  HIT:       4403  MISS:        234
cpu0_L2C PREFETCH  REQUESTED:          0  ISSUED:          0  USEFUL:          0  USELESS:          0
cpu0_L2C AVERAGE MISS LATENCY: 194.567 cycles
LLC TOTAL     ACCESS:     580542  HIT:     244861  MISS:     335681
LLC LOAD      ACCESS:     283304  HIT:      93132  MISS:     190172
LLC RFO       ACCESS:     140456  HIT:      64095  MISS:      76361
LLC PREFETCH  ACCESS:          0  HIT:          0  MISS:          0
LLC WRITEBACK ACCESS:     156548  HIT:      87547  MISS:      69001
LLC TRANSLATION ACCESS:        234  HIT:         87  MISS:        147
LLC PREFETCH  REQUESTED:          0  ISSUED:          0  USEFUL:          0  USELESS:          0
LLC AVERAGE MISS LATENCY: 222.089 cycles
OPTgen accesses: 7361
OPTgen hits: 2816
OPTgen hit rate: 38.2557



DRAM Statistics
 CHANNEL 0
 RQ ROW_BUFFER_HIT:      19350  ROW_BUFFER_MISS:     247330
 DBUS AVG_CONGESTED_CYCLE:    3.99754
 WQ ROW_BUFFER_HIT:       5274  ROW_BUFFER_MISS:      75221  FULL:          0


CPU 0 Branch Prediction Accuracy: 98.8423% MPKI: 0.45019 Average ROB Occupancy at Mispredict: 205.716
Branch type MPKI
BRANCH_DIRECT_JUMP: 0
BRANCH_INDIRECT: 0
BRANCH_CONDITIONAL: 0.45019
BRANCH_DIRECT_CALL: 0
BRANCH_INDIRECT_CALL: 0
BRANCH_RETURN: 0

