
*** ChampSim Multicore Out-of-Order Simulator ***

Warmup Instructions: 10000000
Simulation Instructions: 100000000
Number of CPUs: 1
Off-chip DRAM Size: 4 GiB Channels: 1 Width: 64-bit Data Rate: 3200 MT/s

VirtualMemory physical capacity: 8588881920 num_ppages: 2096895
VirtualMemory page size: 4096 log2_page_size: 12

CPU 0 runs /datasets/cs240c-wi22-a00-public/data/Assignment2/leslie3d_1186B.trace.xz
CPU 0 Bimodal branch predictor
Basic BTB sets: 1024 ways: 8 indirect buffer size: 4096 RAS size: 64
Initialize Hawkeye state
Heartbeat CPU 0 instructions: 10000000 cycles: 4308753 heartbeat IPC: 2.32086 cumulative IPC: 2.32086 (Simulation time: 0 hr 1 min 15 sec) 

Warmup complete CPU 0 instructions: 10000002 cycles: 4308754 (Simulation time: 0 hr 1 min 15 sec) 

Heartbeat CPU 0 instructions: 20000000 cycles: 17363635 heartbeat IPC: 0.765997 cumulative IPC: 0.765997 (Simulation time: 0 hr 3 min 19 sec) 
Heartbeat CPU 0 instructions: 30000000 cycles: 30214021 heartbeat IPC: 0.778187 cumulative IPC: 0.772044 (Simulation time: 0 hr 5 min 22 sec) 
Heartbeat CPU 0 instructions: 40000004 cycles: 43029689 heartbeat IPC: 0.780295 cumulative IPC: 0.774775 (Simulation time: 0 hr 7 min 24 sec) 
Heartbeat CPU 0 instructions: 50000001 cycles: 59057805 heartbeat IPC: 0.623903 cumulative IPC: 0.730606 (Simulation time: 0 hr 9 min 33 sec) 
Heartbeat CPU 0 instructions: 60000000 cycles: 94396033 heartbeat IPC: 0.28298 cumulative IPC: 0.555017 (Simulation time: 0 hr 13 min 21 sec) 
Heartbeat CPU 0 instructions: 70000001 cycles: 123455363 heartbeat IPC: 0.344124 cumulative IPC: 0.503581 (Simulation time: 0 hr 16 min 44 sec) 
Heartbeat CPU 0 instructions: 80000003 cycles: 133816425 heartbeat IPC: 0.965152 cumulative IPC: 0.540509 (Simulation time: 0 hr 18 min 34 sec) 
Heartbeat CPU 0 instructions: 90000002 cycles: 144094903 heartbeat IPC: 0.972907 cumulative IPC: 0.572303 (Simulation time: 0 hr 20 min 24 sec) 
Heartbeat CPU 0 instructions: 100000000 cycles: 154359894 heartbeat IPC: 0.974185 cumulative IPC: 0.599796 (Simulation time: 0 hr 22 min 15 sec) 
Heartbeat CPU 0 instructions: 110000000 cycles: 164661685 heartbeat IPC: 0.970705 cumulative IPC: 0.623624 (Simulation time: 0 hr 24 min 7 sec) 
Finished CPU 0 instructions: 100000003 cycles: 160352932 cumulative IPC: 0.623624 (Simulation time: 0 hr 24 min 7 sec) 

ChampSim completed all CPUs

Region of Interest Statistics

CPU 0 cumulative IPC: 0.623624 instructions: 100000003 cycles: 160352932
cpu0_DTLB TOTAL     ACCESS:   27971523  HIT:   27873889  MISS:      97634
cpu0_DTLB LOAD      ACCESS:   23304710  HIT:   23218827  MISS:      85883
cpu0_DTLB RFO       ACCESS:    4666813  HIT:    4655062  MISS:      11751
cpu0_DTLB PREFETCH  ACCESS:          0  HIT:          0  MISS:          0
cpu0_DTLB WRITEBACK ACCESS:          0  HIT:          0  MISS:          0
cpu0_DTLB TRANSLATION ACCESS:          0  HIT:          0  MISS:          0
cpu0_DTLB PREFETCH  REQUESTED:          0  ISSUED:          0  USEFUL:          0  USELESS:          0
cpu0_DTLB AVERAGE MISS LATENCY: 52.5772 cycles
cpu0_ITLB TOTAL     ACCESS:    2893912  HIT:    2893899  MISS:         13
cpu0_ITLB LOAD      ACCESS:    2893912  HIT:    2893899  MISS:         13
cpu0_ITLB RFO       ACCESS:          0  HIT:          0  MISS:          0
cpu0_ITLB PREFETCH  ACCESS:          0  HIT:          0  MISS:          0
cpu0_ITLB WRITEBACK ACCESS:          0  HIT:          0  MISS:          0
cpu0_ITLB TRANSLATION ACCESS:          0  HIT:          0  MISS:          0
cpu0_ITLB PREFETCH  REQUESTED:          0  ISSUED:          0  USEFUL:          0  USELESS:          0
cpu0_ITLB AVERAGE MISS LATENCY: 300.462 cycles
cpu0_L1I TOTAL     ACCESS:    1736365  HIT:    1735985  MISS:        380
cpu0_L1I LOAD      ACCESS:    1736365  HIT:    1735985  MISS:        380
cpu0_L1I RFO       ACCESS:          0  HIT:          0  MISS:          0
cpu0_L1I PREFETCH  ACCESS:          0  HIT:          0  MISS:          0
cpu0_L1I WRITEBACK ACCESS:          0  HIT:          0  MISS:          0
cpu0_L1I TRANSLATION ACCESS:          0  HIT:          0  MISS:          0
cpu0_L1I PREFETCH  REQUESTED:          0  ISSUED:          0  USEFUL:          0  USELESS:          0
cpu0_L1I AVERAGE MISS LATENCY: 322.329 cycles
cpu0_STLB TOTAL     ACCESS:      97647  HIT:      70245  MISS:      27402
cpu0_STLB LOAD      ACCESS:      85896  HIT:      63169  MISS:      22727
cpu0_STLB RFO       ACCESS:      11751  HIT:       7076  MISS:       4675
cpu0_STLB PREFETCH  ACCESS:          0  HIT:          0  MISS:          0
cpu0_STLB WRITEBACK ACCESS:          0  HIT:          0  MISS:          0
cpu0_STLB TRANSLATION ACCESS:          0  HIT:          0  MISS:          0
cpu0_STLB PREFETCH  REQUESTED:          0  ISSUED:          0  USEFUL:          0  USELESS:          0
cpu0_STLB AVERAGE MISS LATENCY: 155.35 cycles
cpu0_L1D TOTAL     ACCESS:   27035690  HIT:   23132883  MISS:    3902807
cpu0_L1D LOAD      ACCESS:   17812720  HIT:   14628894  MISS:    3183826
cpu0_L1D RFO       ACCESS:    9198435  HIT:    8482896  MISS:     715539
cpu0_L1D PREFETCH  ACCESS:          0  HIT:          0  MISS:          0
cpu0_L1D WRITEBACK ACCESS:          0  HIT:          0  MISS:          0
cpu0_L1D TRANSLATION ACCESS:      24535  HIT:      21093  MISS:       3442
cpu0_L1D PREFETCH  REQUESTED:          0  ISSUED:          0  USEFUL:          0  USELESS:          0
cpu0_L1D AVERAGE MISS LATENCY: 347.798 cycles
cpu0_L2C TOTAL     ACCESS:    4956295  HIT:    2398932  MISS:    2557363
cpu0_L2C LOAD      ACCESS:    3184155  HIT:    1036885  MISS:    2147270
cpu0_L2C RFO       ACCESS:     715216  HIT:     307541  MISS:     407675
cpu0_L2C PREFETCH  ACCESS:          0  HIT:          0  MISS:          0
cpu0_L2C WRITEBACK ACCESS:    1053482  HIT:    1051275  MISS:       2207
cpu0_L2C TRANSLATION ACCESS:       3442  HIT:       3231  MISS:        211
cpu0_L2C PREFETCH  REQUESTED:          0  ISSUED:          0  USEFUL:          0  USELESS:          0
cpu0_L2C AVERAGE MISS LATENCY: 513.98 cycles
LLC TOTAL     ACCESS:    3217499  HIT:     882051  MISS:    2335448
LLC LOAD      ACCESS:    2147264  HIT:     567229  MISS:    1580035
LLC RFO       ACCESS:     407663  HIT:     112474  MISS:     295189
LLC PREFETCH  ACCESS:          0  HIT:          0  MISS:          0
LLC WRITEBACK ACCESS:     662361  HIT:     202279  MISS:     460082
LLC TRANSLATION ACCESS:        211  HIT:         69  MISS:        142
LLC PREFETCH  REQUESTED:          0  ISSUED:          0  USEFUL:          0  USELESS:          0
LLC AVERAGE MISS LATENCY: 539.799 cycles
OPTgen accesses: 43419
OPTgen hits: 9577
OPTgen hit rate: 22.0572



DRAM Statistics
 CHANNEL 0
 RQ ROW_BUFFER_HIT:     210673  ROW_BUFFER_MISS:    1664512
 DBUS AVG_CONGESTED_CYCLE:    3.95117
 WQ ROW_BUFFER_HIT:      39408  ROW_BUFFER_MISS:     500285  FULL:      21674


CPU 0 Branch Prediction Accuracy: 96.8384% MPKI: 1.47634 Average ROB Occupancy at Mispredict: 311.689
Branch type MPKI
BRANCH_DIRECT_JUMP: 0.00016
BRANCH_INDIRECT: 0
BRANCH_CONDITIONAL: 1.47504
BRANCH_DIRECT_CALL: 0.00057
BRANCH_INDIRECT_CALL: 0
BRANCH_RETURN: 0.00057

