
*** ChampSim Multicore Out-of-Order Simulator ***

Warmup Instructions: 10000000
Simulation Instructions: 100000000
Number of CPUs: 1
Off-chip DRAM Size: 4 GiB Channels: 1 Width: 64-bit Data Rate: 3200 MT/s

VirtualMemory physical capacity: 8588881920 num_ppages: 2096895
VirtualMemory page size: 4096 log2_page_size: 12

CPU 0 runs /datasets/cs240c-wi22-a00-public/data/Assignment2/perlbench_105B.trace.xz
CPU 0 Bimodal branch predictor
Basic BTB sets: 1024 ways: 8 indirect buffer size: 4096 RAS size: 64
Initialize Hawkeye state
Heartbeat CPU 0 instructions: 10000002 cycles: 2500176 heartbeat IPC: 3.99972 cumulative IPC: 3.99972 (Simulation time: 0 hr 0 min 29 sec) 

Warmup complete CPU 0 instructions: 10000002 cycles: 2500176 (Simulation time: 0 hr 0 min 29 sec) 

Heartbeat CPU 0 instructions: 20000000 cycles: 6921202 heartbeat IPC: 2.26192 cumulative IPC: 2.26192 (Simulation time: 0 hr 1 min 6 sec) 
Heartbeat CPU 0 instructions: 30000000 cycles: 10427201 heartbeat IPC: 2.85225 cumulative IPC: 2.52301 (Simulation time: 0 hr 1 min 41 sec) 
Heartbeat CPU 0 instructions: 40000001 cycles: 20613211 heartbeat IPC: 0.981739 cumulative IPC: 1.65627 (Simulation time: 0 hr 2 min 23 sec) 
Heartbeat CPU 0 instructions: 50000000 cycles: 34419466 heartbeat IPC: 0.724309 cumulative IPC: 1.25316 (Simulation time: 0 hr 3 min 9 sec) 
Heartbeat CPU 0 instructions: 60000001 cycles: 45360920 heartbeat IPC: 0.913955 cumulative IPC: 1.16657 (Simulation time: 0 hr 3 min 54 sec) 
Heartbeat CPU 0 instructions: 70000002 cycles: 49819948 heartbeat IPC: 2.24264 cumulative IPC: 1.26797 (Simulation time: 0 hr 4 min 31 sec) 
Heartbeat CPU 0 instructions: 80000001 cycles: 54411961 heartbeat IPC: 2.17769 cumulative IPC: 1.34844 (Simulation time: 0 hr 5 min 9 sec) 
Heartbeat CPU 0 instructions: 90000002 cycles: 58949691 heartbeat IPC: 2.20375 cumulative IPC: 1.4172 (Simulation time: 0 hr 5 min 47 sec) 
Heartbeat CPU 0 instructions: 100000002 cycles: 63529907 heartbeat IPC: 2.1833 cumulative IPC: 1.47469 (Simulation time: 0 hr 6 min 22 sec) 
Heartbeat CPU 0 instructions: 110000001 cycles: 67367185 heartbeat IPC: 2.60601 cumulative IPC: 1.54162 (Simulation time: 0 hr 6 min 59 sec) 
Finished CPU 0 instructions: 100000004 cycles: 64867010 cumulative IPC: 1.54162 (Simulation time: 0 hr 6 min 59 sec) 

ChampSim completed all CPUs

Region of Interest Statistics

CPU 0 cumulative IPC: 1.54162 instructions: 100000004 cycles: 64867010
cpu0_DTLB TOTAL     ACCESS:   18537460  HIT:   18365302  MISS:     172158
cpu0_DTLB LOAD      ACCESS:   12028567  HIT:   11875471  MISS:     153096
cpu0_DTLB RFO       ACCESS:    6508893  HIT:    6489831  MISS:      19062
cpu0_DTLB PREFETCH  ACCESS:          0  HIT:          0  MISS:          0
cpu0_DTLB WRITEBACK ACCESS:          0  HIT:          0  MISS:          0
cpu0_DTLB TRANSLATION ACCESS:          0  HIT:          0  MISS:          0
cpu0_DTLB PREFETCH  REQUESTED:          0  ISSUED:          0  USEFUL:          0  USELESS:          0
cpu0_DTLB AVERAGE MISS LATENCY: 10.7477 cycles
cpu0_ITLB TOTAL     ACCESS:    6608458  HIT:    6581792  MISS:      26666
cpu0_ITLB LOAD      ACCESS:    6608458  HIT:    6581792  MISS:      26666
cpu0_ITLB RFO       ACCESS:          0  HIT:          0  MISS:          0
cpu0_ITLB PREFETCH  ACCESS:          0  HIT:          0  MISS:          0
cpu0_ITLB WRITEBACK ACCESS:          0  HIT:          0  MISS:          0
cpu0_ITLB TRANSLATION ACCESS:          0  HIT:          0  MISS:          0
cpu0_ITLB PREFETCH  REQUESTED:          0  ISSUED:          0  USEFUL:          0  USELESS:          0
cpu0_ITLB AVERAGE MISS LATENCY: 9.73401 cycles
cpu0_L1I TOTAL     ACCESS:    9197222  HIT:    8946407  MISS:     250815
cpu0_L1I LOAD      ACCESS:    9197222  HIT:    8946407  MISS:     250815
cpu0_L1I RFO       ACCESS:          0  HIT:          0  MISS:          0
cpu0_L1I PREFETCH  ACCESS:          0  HIT:          0  MISS:          0
cpu0_L1I WRITEBACK ACCESS:          0  HIT:          0  MISS:          0
cpu0_L1I TRANSLATION ACCESS:          0  HIT:          0  MISS:          0
cpu0_L1I PREFETCH  REQUESTED:          0  ISSUED:          0  USEFUL:          0  USELESS:          0
cpu0_L1I AVERAGE MISS LATENCY: 12.5922 cycles
cpu0_STLB TOTAL     ACCESS:     198824  HIT:     197228  MISS:       1596
cpu0_STLB LOAD      ACCESS:     179762  HIT:     178363  MISS:       1399
cpu0_STLB RFO       ACCESS:      19062  HIT:      18865  MISS:        197
cpu0_STLB PREFETCH  ACCESS:          0  HIT:          0  MISS:          0
cpu0_STLB WRITEBACK ACCESS:          0  HIT:          0  MISS:          0
cpu0_STLB TRANSLATION ACCESS:          0  HIT:          0  MISS:          0
cpu0_STLB PREFETCH  REQUESTED:          0  ISSUED:          0  USEFUL:          0  USELESS:          0
cpu0_STLB AVERAGE MISS LATENCY: 200.037 cycles
cpu0_L1D TOTAL     ACCESS:   27565942  HIT:   27245471  MISS:     320471
cpu0_L1D LOAD      ACCESS:   11857155  HIT:   11566273  MISS:     290882
cpu0_L1D RFO       ACCESS:   15707199  HIT:   15677869  MISS:      29330
cpu0_L1D PREFETCH  ACCESS:          0  HIT:          0  MISS:          0
cpu0_L1D WRITEBACK ACCESS:          0  HIT:          0  MISS:          0
cpu0_L1D TRANSLATION ACCESS:       1588  HIT:       1329  MISS:        259
cpu0_L1D PREFETCH  REQUESTED:          0  ISSUED:          0  USEFUL:          0  USELESS:          0
cpu0_L1D AVERAGE MISS LATENCY: 20.341 cycles
cpu0_L2C TOTAL     ACCESS:     644539  HIT:     618203  MISS:      26336
cpu0_L2C LOAD      ACCESS:     541686  HIT:     522764  MISS:      18922
cpu0_L2C RFO       ACCESS:      29329  HIT:      21954  MISS:       7375
cpu0_L2C PREFETCH  ACCESS:          0  HIT:          0  MISS:          0
cpu0_L2C WRITEBACK ACCESS:      73265  HIT:      73231  MISS:         34
cpu0_L2C TRANSLATION ACCESS:        259  HIT:        254  MISS:          5
cpu0_L2C PREFETCH  REQUESTED:          0  ISSUED:          0  USEFUL:          0  USELESS:          0
cpu0_L2C AVERAGE MISS LATENCY: 128.495 cycles
LLC TOTAL     ACCESS:      34248  HIT:      14351  MISS:      19897
LLC LOAD      ACCESS:      18922  HIT:       5150  MISS:      13772
LLC RFO       ACCESS:       7375  HIT:       1256  MISS:       6119
LLC PREFETCH  ACCESS:          0  HIT:          0  MISS:          0
LLC WRITEBACK ACCESS:       7946  HIT:       7940  MISS:          6
LLC TRANSLATION ACCESS:          5  HIT:          5  MISS:          0
LLC PREFETCH  REQUESTED:          0  ISSUED:          0  USEFUL:          0  USELESS:          0
LLC AVERAGE MISS LATENCY: 142.318 cycles
OPTgen accesses: 411
OPTgen hits: 68
OPTgen hit rate: 16.545



DRAM Statistics
 CHANNEL 0
 RQ ROW_BUFFER_HIT:       6517  ROW_BUFFER_MISS:      13374
 DBUS AVG_CONGESTED_CYCLE:    3.87172
 WQ ROW_BUFFER_HIT:         18  ROW_BUFFER_MISS:         29  FULL:          0


CPU 0 Branch Prediction Accuracy: 97.5286% MPKI: 5.18859 Average ROB Occupancy at Mispredict: 44.1156
Branch type MPKI
BRANCH_DIRECT_JUMP: 0.00492
BRANCH_INDIRECT: 0.39076
BRANCH_CONDITIONAL: 4.28635
BRANCH_DIRECT_CALL: 0.00567
BRANCH_INDIRECT_CALL: 0.49307
BRANCH_RETURN: 0.00782

