
*** ChampSim Multicore Out-of-Order Simulator ***

Warmup Instructions: 10000000
Simulation Instructions: 100000000
Number of CPUs: 1
Off-chip DRAM Size: 4 GiB Channels: 1 Width: 64-bit Data Rate: 3200 MT/s

VirtualMemory physical capacity: 8588881920 num_ppages: 2096895
VirtualMemory page size: 4096 log2_page_size: 12

CPU 0 runs /datasets/cs240c-wi22-a00-public/data/Assignment2/GemsFDTD_109B.trace.xz
CPU 0 Bimodal branch predictor
Basic BTB sets: 1024 ways: 8 indirect buffer size: 4096 RAS size: 64
Initialize Hawkeye state
Heartbeat CPU 0 instructions: 10000004 cycles: 4294006 heartbeat IPC: 2.32883 cumulative IPC: 2.32883 (Simulation time: 0 hr 1 min 9 sec) 

Warmup complete CPU 0 instructions: 10000004 cycles: 4294006 (Simulation time: 0 hr 1 min 9 sec) 

Heartbeat CPU 0 instructions: 20000000 cycles: 34960915 heartbeat IPC: 0.326084 cumulative IPC: 0.326084 (Simulation time: 0 hr 4 min 57 sec) 
Heartbeat CPU 0 instructions: 30000004 cycles: 56376563 heartbeat IPC: 0.466948 cumulative IPC: 0.384006 (Simulation time: 0 hr 7 min 13 sec) 
Heartbeat CPU 0 instructions: 40000004 cycles: 62581794 heartbeat IPC: 1.61154 cumulative IPC: 0.514688 (Simulation time: 0 hr 8 min 4 sec) 
Heartbeat CPU 0 instructions: 50000002 cycles: 83476890 heartbeat IPC: 0.478581 cumulative IPC: 0.50516 (Simulation time: 0 hr 10 min 19 sec) 
Heartbeat CPU 0 instructions: 60000003 cycles: 123717077 heartbeat IPC: 0.248508 cumulative IPC: 0.41868 (Simulation time: 0 hr 14 min 49 sec) 
Heartbeat CPU 0 instructions: 70000002 cycles: 163544343 heartbeat IPC: 0.251084 cumulative IPC: 0.376765 (Simulation time: 0 hr 19 min 14 sec) 
Heartbeat CPU 0 instructions: 80000004 cycles: 202929385 heartbeat IPC: 0.253904 cumulative IPC: 0.352405 (Simulation time: 0 hr 23 min 38 sec) 
Heartbeat CPU 0 instructions: 90000000 cycles: 242775445 heartbeat IPC: 0.250966 cumulative IPC: 0.335456 (Simulation time: 0 hr 28 min 5 sec) 
Heartbeat CPU 0 instructions: 100000003 cycles: 282486750 heartbeat IPC: 0.251818 cumulative IPC: 0.323517 (Simulation time: 0 hr 32 min 27 sec) 
Heartbeat CPU 0 instructions: 110000004 cycles: 322465256 heartbeat IPC: 0.250134 cumulative IPC: 0.314296 (Simulation time: 0 hr 36 min 51 sec) 
Finished CPU 0 instructions: 100000000 cycles: 318171250 cumulative IPC: 0.314296 (Simulation time: 0 hr 36 min 51 sec) 

ChampSim completed all CPUs

Region of Interest Statistics

CPU 0 cumulative IPC: 0.314296 instructions: 100000000 cycles: 318171250
cpu0_DTLB TOTAL     ACCESS:   26450013  HIT:   26250592  MISS:     199421
cpu0_DTLB LOAD      ACCESS:   21018375  HIT:   20820955  MISS:     197420
cpu0_DTLB RFO       ACCESS:    5431638  HIT:    5429637  MISS:       2001
cpu0_DTLB PREFETCH  ACCESS:          0  HIT:          0  MISS:          0
cpu0_DTLB WRITEBACK ACCESS:          0  HIT:          0  MISS:          0
cpu0_DTLB TRANSLATION ACCESS:          0  HIT:          0  MISS:          0
cpu0_DTLB PREFETCH  REQUESTED:          0  ISSUED:          0  USEFUL:          0  USELESS:          0
cpu0_DTLB AVERAGE MISS LATENCY: 424.961 cycles
cpu0_ITLB TOTAL     ACCESS:    2053561  HIT:    2053543  MISS:         18
cpu0_ITLB LOAD      ACCESS:    2053561  HIT:    2053543  MISS:         18
cpu0_ITLB RFO       ACCESS:          0  HIT:          0  MISS:          0
cpu0_ITLB PREFETCH  ACCESS:          0  HIT:          0  MISS:          0
cpu0_ITLB WRITEBACK ACCESS:          0  HIT:          0  MISS:          0
cpu0_ITLB TRANSLATION ACCESS:          0  HIT:          0  MISS:          0
cpu0_ITLB PREFETCH  REQUESTED:          0  ISSUED:          0  USEFUL:          0  USELESS:          0
cpu0_ITLB AVERAGE MISS LATENCY: 255.056 cycles
cpu0_L1I TOTAL     ACCESS:    1722933  HIT:    1722503  MISS:        430
cpu0_L1I LOAD      ACCESS:    1722933  HIT:    1722503  MISS:        430
cpu0_L1I RFO       ACCESS:          0  HIT:          0  MISS:          0
cpu0_L1I PREFETCH  ACCESS:          0  HIT:          0  MISS:          0
cpu0_L1I WRITEBACK ACCESS:          0  HIT:          0  MISS:          0
cpu0_L1I TRANSLATION ACCESS:          0  HIT:          0  MISS:          0
cpu0_L1I PREFETCH  REQUESTED:          0  ISSUED:          0  USEFUL:          0  USELESS:          0
cpu0_L1I AVERAGE MISS LATENCY: 380.798 cycles
cpu0_STLB TOTAL     ACCESS:     199439  HIT:      33978  MISS:     165461
cpu0_STLB LOAD      ACCESS:     197438  HIT:      32671  MISS:     164767
cpu0_STLB RFO       ACCESS:       2001  HIT:       1307  MISS:        694
cpu0_STLB PREFETCH  ACCESS:          0  HIT:          0  MISS:          0
cpu0_STLB WRITEBACK ACCESS:          0  HIT:          0  MISS:          0
cpu0_STLB TRANSLATION ACCESS:          0  HIT:          0  MISS:          0
cpu0_STLB PREFETCH  REQUESTED:          0  ISSUED:          0  USEFUL:          0  USELESS:          0
cpu0_STLB AVERAGE MISS LATENCY: 501.245 cycles
cpu0_L1D TOTAL     ACCESS:   22879482  HIT:   19649485  MISS:    3229997
cpu0_L1D LOAD      ACCESS:   13780970  HIT:   10681264  MISS:    3099706
cpu0_L1D RFO       ACCESS:    9009055  HIT:    8881442  MISS:     127613
cpu0_L1D PREFETCH  ACCESS:          0  HIT:          0  MISS:          0
cpu0_L1D WRITEBACK ACCESS:          0  HIT:          0  MISS:          0
cpu0_L1D TRANSLATION ACCESS:      89457  HIT:      86779  MISS:       2678
cpu0_L1D PREFETCH  REQUESTED:          0  ISSUED:          0  USEFUL:          0  USELESS:          0
cpu0_L1D AVERAGE MISS LATENCY: 718.765 cycles
cpu0_L2C TOTAL     ACCESS:    4595260  HIT:    1423306  MISS:    3171954
cpu0_L2C LOAD      ACCESS:    3100136  HIT:      40954  MISS:    3059182
cpu0_L2C RFO       ACCESS:     127613  HIT:      15135  MISS:     112478
cpu0_L2C PREFETCH  ACCESS:          0  HIT:          0  MISS:          0
cpu0_L2C WRITEBACK ACCESS:    1364833  HIT:    1364735  MISS:         98
cpu0_L2C TRANSLATION ACCESS:       2678  HIT:       2482  MISS:        196
cpu0_L2C PREFETCH  REQUESTED:          0  ISSUED:          0  USEFUL:          0  USELESS:          0
cpu0_L2C AVERAGE MISS LATENCY: 720.751 cycles
LLC TOTAL     ACCESS:    4523139  HIT:    1137530  MISS:    3385609
LLC LOAD      ACCESS:    3059180  HIT:     707674  MISS:    2351506
LLC RFO       ACCESS:     112478  HIT:      93874  MISS:      18604
LLC PREFETCH  ACCESS:          0  HIT:          0  MISS:          0
LLC WRITEBACK ACCESS:    1351285  HIT:     335884  MISS:    1015401
LLC TRANSLATION ACCESS:        196  HIT:         98  MISS:         98
LLC PREFETCH  REQUESTED:          0  ISSUED:          0  USEFUL:          0  USELESS:          0
LLC AVERAGE MISS LATENCY: 655.572 cycles
OPTgen accesses: 53467
OPTgen hits: 14344
OPTgen hit rate: 26.8278



DRAM Statistics
 CHANNEL 0
 RQ ROW_BUFFER_HIT:      43152  ROW_BUFFER_MISS:    2326971
 DBUS AVG_CONGESTED_CYCLE:    3.99643
 WQ ROW_BUFFER_HIT:      20474  ROW_BUFFER_MISS:    1236189  FULL:      47001


CPU 0 Branch Prediction Accuracy: 98.929% MPKI: 0.55515 Average ROB Occupancy at Mispredict: 266.55
Branch type MPKI
BRANCH_DIRECT_JUMP: 0.00045
BRANCH_INDIRECT: 1e-05
BRANCH_CONDITIONAL: 0.5534
BRANCH_DIRECT_CALL: 0.00065
BRANCH_INDIRECT_CALL: 0
BRANCH_RETURN: 0.00064

