
*** ChampSim Multicore Out-of-Order Simulator ***

Warmup Instructions: 10000000
Simulation Instructions: 100000000
Number of CPUs: 1
Off-chip DRAM Size: 4 GiB Channels: 1 Width: 64-bit Data Rate: 3200 MT/s

VirtualMemory physical capacity: 8588881920 num_ppages: 2096895
VirtualMemory page size: 4096 log2_page_size: 12

CPU 0 runs /datasets/cs240c-wi22-a00-public/data/Assignment2/wrf_1228B.trace.xz
CPU 0 Bimodal branch predictor
Basic BTB sets: 1024 ways: 8 indirect buffer size: 4096 RAS size: 64
Initialize Hawkeye state
Heartbeat CPU 0 instructions: 10000001 cycles: 3904438 heartbeat IPC: 2.56119 cumulative IPC: 2.56119 (Simulation time: 0 hr 1 min 0 sec) 

Warmup complete CPU 0 instructions: 10000001 cycles: 3904438 (Simulation time: 0 hr 1 min 0 sec) 

Heartbeat CPU 0 instructions: 20000001 cycles: 12454895 heartbeat IPC: 1.16953 cumulative IPC: 1.16953 (Simulation time: 0 hr 2 min 20 sec) 
Heartbeat CPU 0 instructions: 30000003 cycles: 24209688 heartbeat IPC: 0.850717 cumulative IPC: 0.984967 (Simulation time: 0 hr 4 min 2 sec) 
Heartbeat CPU 0 instructions: 40000000 cycles: 36670743 heartbeat IPC: 0.8025 cumulative IPC: 0.915575 (Simulation time: 0 hr 5 min 50 sec) 
Heartbeat CPU 0 instructions: 50000001 cycles: 44589624 heartbeat IPC: 1.2628 cumulative IPC: 0.983159 (Simulation time: 0 hr 7 min 4 sec) 
Heartbeat CPU 0 instructions: 60000003 cycles: 54517913 heartbeat IPC: 1.00722 cumulative IPC: 0.987879 (Simulation time: 0 hr 8 min 32 sec) 
Heartbeat CPU 0 instructions: 70000001 cycles: 65870155 heartbeat IPC: 0.880883 cumulative IPC: 0.968277 (Simulation time: 0 hr 9 min 54 sec) 
Heartbeat CPU 0 instructions: 80000004 cycles: 75579988 heartbeat IPC: 1.02988 cumulative IPC: 0.976623 (Simulation time: 0 hr 10 min 59 sec) 
Heartbeat CPU 0 instructions: 90000001 cycles: 85264988 heartbeat IPC: 1.03252 cumulative IPC: 0.983277 (Simulation time: 0 hr 12 min 6 sec) 
Heartbeat CPU 0 instructions: 100000002 cycles: 94943328 heartbeat IPC: 1.03324 cumulative IPC: 0.988589 (Simulation time: 0 hr 13 min 12 sec) 
Heartbeat CPU 0 instructions: 110000000 cycles: 104613491 heartbeat IPC: 1.03411 cumulative IPC: 0.992959 (Simulation time: 0 hr 14 min 21 sec) 
Finished CPU 0 instructions: 100000004 cycles: 100709054 cumulative IPC: 0.992959 (Simulation time: 0 hr 14 min 21 sec) 

ChampSim completed all CPUs

Region of Interest Statistics

CPU 0 cumulative IPC: 0.992959 instructions: 100000004 cycles: 100709054
cpu0_DTLB TOTAL     ACCESS:   19663675  HIT:   19567438  MISS:      96237
cpu0_DTLB LOAD      ACCESS:   17650647  HIT:   17568718  MISS:      81929
cpu0_DTLB RFO       ACCESS:    2013028  HIT:    1998720  MISS:      14308
cpu0_DTLB PREFETCH  ACCESS:          0  HIT:          0  MISS:          0
cpu0_DTLB WRITEBACK ACCESS:          0  HIT:          0  MISS:          0
cpu0_DTLB TRANSLATION ACCESS:          0  HIT:          0  MISS:          0
cpu0_DTLB PREFETCH  REQUESTED:          0  ISSUED:          0  USEFUL:          0  USELESS:          0
cpu0_DTLB AVERAGE MISS LATENCY: 20.0136 cycles
cpu0_ITLB TOTAL     ACCESS:    4190901  HIT:    4190889  MISS:         12
cpu0_ITLB LOAD      ACCESS:    4190901  HIT:    4190889  MISS:         12
cpu0_ITLB RFO       ACCESS:          0  HIT:          0  MISS:          0
cpu0_ITLB PREFETCH  ACCESS:          0  HIT:          0  MISS:          0
cpu0_ITLB WRITEBACK ACCESS:          0  HIT:          0  MISS:          0
cpu0_ITLB TRANSLATION ACCESS:          0  HIT:          0  MISS:          0
cpu0_ITLB PREFETCH  REQUESTED:          0  ISSUED:          0  USEFUL:          0  USELESS:          0
cpu0_ITLB AVERAGE MISS LATENCY: 220.583 cycles
cpu0_L1I TOTAL     ACCESS:    6672164  HIT:    6671416  MISS:        748
cpu0_L1I LOAD      ACCESS:    6672164  HIT:    6671416  MISS:        748
cpu0_L1I RFO       ACCESS:          0  HIT:          0  MISS:          0
cpu0_L1I PREFETCH  ACCESS:          0  HIT:          0  MISS:          0
cpu0_L1I WRITEBACK ACCESS:          0  HIT:          0  MISS:          0
cpu0_L1I TRANSLATION ACCESS:          0  HIT:          0  MISS:          0
cpu0_L1I PREFETCH  REQUESTED:          0  ISSUED:          0  USEFUL:          0  USELESS:          0
cpu0_L1I AVERAGE MISS LATENCY: 291.501 cycles
cpu0_STLB TOTAL     ACCESS:      96249  HIT:      86695  MISS:       9554
cpu0_STLB LOAD      ACCESS:      81941  HIT:      75033  MISS:       6908
cpu0_STLB RFO       ACCESS:      14308  HIT:      11662  MISS:       2646
cpu0_STLB PREFETCH  ACCESS:          0  HIT:          0  MISS:          0
cpu0_STLB WRITEBACK ACCESS:          0  HIT:          0  MISS:          0
cpu0_STLB TRANSLATION ACCESS:          0  HIT:          0  MISS:          0
cpu0_STLB PREFETCH  REQUESTED:          0  ISSUED:          0  USEFUL:          0  USELESS:          0
cpu0_STLB AVERAGE MISS LATENCY: 111.185 cycles
cpu0_L1D TOTAL     ACCESS:   18897629  HIT:   17539244  MISS:    1358385
cpu0_L1D LOAD      ACCESS:   14850072  HIT:   13751010  MISS:    1099062
cpu0_L1D RFO       ACCESS:    4038013  HIT:    3779477  MISS:     258536
cpu0_L1D PREFETCH  ACCESS:          0  HIT:          0  MISS:          0
cpu0_L1D WRITEBACK ACCESS:          0  HIT:          0  MISS:          0
cpu0_L1D TRANSLATION ACCESS:       9544  HIT:       8757  MISS:        787
cpu0_L1D PREFETCH  REQUESTED:          0  ISSUED:          0  USEFUL:          0  USELESS:          0
cpu0_L1D AVERAGE MISS LATENCY: 209.453 cycles
cpu0_L2C TOTAL     ACCESS:    1836315  HIT:     802880  MISS:    1033435
cpu0_L2C LOAD      ACCESS:    1099781  HIT:     287156  MISS:     812625
cpu0_L2C RFO       ACCESS:     258533  HIT:      39517  MISS:     219016
cpu0_L2C PREFETCH  ACCESS:          0  HIT:          0  MISS:          0
cpu0_L2C WRITEBACK ACCESS:     477214  HIT:     475533  MISS:       1681
cpu0_L2C TRANSLATION ACCESS:        787  HIT:        674  MISS:        113
cpu0_L2C PREFETCH  REQUESTED:          0  ISSUED:          0  USEFUL:          0  USELESS:          0
cpu0_L2C AVERAGE MISS LATENCY: 261.035 cycles
LLC TOTAL     ACCESS:    1463801  HIT:     514424  MISS:     949377
LLC LOAD      ACCESS:     812625  HIT:     196396  MISS:     616229
LLC RFO       ACCESS:     219016  HIT:      38052  MISS:     180964
LLC PREFETCH  ACCESS:          0  HIT:          0  MISS:          0
LLC WRITEBACK ACCESS:     432047  HIT:     279930  MISS:     152117
LLC TRANSLATION ACCESS:        113  HIT:         46  MISS:         67
LLC PREFETCH  REQUESTED:          0  ISSUED:          0  USEFUL:          0  USELESS:          0
LLC AVERAGE MISS LATENCY: 261.322 cycles
OPTgen accesses: 20219
OPTgen hits: 2164
OPTgen hit rate: 10.7028



DRAM Statistics
 CHANNEL 0
 RQ ROW_BUFFER_HIT:      98739  ROW_BUFFER_MISS:     698160
 DBUS AVG_CONGESTED_CYCLE:    3.92802
 WQ ROW_BUFFER_HIT:      26387  ROW_BUFFER_MISS:     263377  FULL:          0


CPU 0 Branch Prediction Accuracy: 97.4481% MPKI: 2.04611 Average ROB Occupancy at Mispredict: 259.053
Branch type MPKI
BRANCH_DIRECT_JUMP: 0.00028
BRANCH_INDIRECT: 0
BRANCH_CONDITIONAL: 2.0456
BRANCH_DIRECT_CALL: 0.00011
BRANCH_INDIRECT_CALL: 0
BRANCH_RETURN: 0.00012

