
*** ChampSim Multicore Out-of-Order Simulator ***

Warmup Instructions: 10000000
Simulation Instructions: 100000000
Number of CPUs: 1
Off-chip DRAM Size: 4 GiB Channels: 1 Width: 64-bit Data Rate: 3200 MT/s

VirtualMemory physical capacity: 8588881920 num_ppages: 2096895
VirtualMemory page size: 4096 log2_page_size: 12

CPU 0 runs /datasets/cs240c-wi22-a00-public/data/Assignment2/mcf_158B.trace.xz
CPU 0 Bimodal branch predictor
Basic BTB sets: 1024 ways: 8 indirect buffer size: 4096 RAS size: 64
Initialize Hawkeye state
Heartbeat CPU 0 instructions: 10000002 cycles: 3864087 heartbeat IPC: 2.58793 cumulative IPC: 2.58793 (Simulation time: 0 hr 0 min 51 sec) 

Warmup complete CPU 0 instructions: 10000002 cycles: 3864087 (Simulation time: 0 hr 0 min 51 sec) 

Heartbeat CPU 0 instructions: 20000000 cycles: 140370407 heartbeat IPC: 0.0732567 cumulative IPC: 0.0732567 (Simulation time: 0 hr 4 min 9 sec) 
Heartbeat CPU 0 instructions: 30000000 cycles: 272030777 heartbeat IPC: 0.075953 cumulative IPC: 0.0745805 (Simulation time: 0 hr 7 min 17 sec) 
Heartbeat CPU 0 instructions: 40000001 cycles: 402274577 heartbeat IPC: 0.0767791 cumulative IPC: 0.0752992 (Simulation time: 0 hr 10 min 27 sec) 
Heartbeat CPU 0 instructions: 50000000 cycles: 521876043 heartbeat IPC: 0.083611 cumulative IPC: 0.0772183 (Simulation time: 0 hr 13 min 21 sec) 
Heartbeat CPU 0 instructions: 60000000 cycles: 639899576 heartbeat IPC: 0.0847289 cumulative IPC: 0.078612 (Simulation time: 0 hr 16 min 17 sec) 
Heartbeat CPU 0 instructions: 70000002 cycles: 753187898 heartbeat IPC: 0.0882704 cumulative IPC: 0.0800722 (Simulation time: 0 hr 19 min 7 sec) 
Heartbeat CPU 0 instructions: 80000000 cycles: 869392760 heartbeat IPC: 0.0860549 cumulative IPC: 0.0808754 (Simulation time: 0 hr 22 min 8 sec) 
Heartbeat CPU 0 instructions: 90000003 cycles: 988778813 heartbeat IPC: 0.0837619 cumulative IPC: 0.0812253 (Simulation time: 0 hr 25 min 19 sec) 
Heartbeat CPU 0 instructions: 100000003 cycles: 1109604272 heartbeat IPC: 0.082764 cumulative IPC: 0.0813934 (Simulation time: 0 hr 28 min 36 sec) 
Heartbeat CPU 0 instructions: 110000001 cycles: 1230591051 heartbeat IPC: 0.0826536 cumulative IPC: 0.0815177 (Simulation time: 0 hr 32 min 1 sec) 
Finished CPU 0 instructions: 100000002 cycles: 1226726965 cumulative IPC: 0.0815177 (Simulation time: 0 hr 32 min 1 sec) 

ChampSim completed all CPUs

Region of Interest Statistics

CPU 0 cumulative IPC: 0.0815177 instructions: 100000002 cycles: 1226726965
cpu0_DTLB TOTAL     ACCESS:   23556566  HIT:   12734636  MISS:   10821930
cpu0_DTLB LOAD      ACCESS:   20435395  HIT:    9980634  MISS:   10454761
cpu0_DTLB RFO       ACCESS:    3121171  HIT:    2754002  MISS:     367169
cpu0_DTLB PREFETCH  ACCESS:          0  HIT:          0  MISS:          0
cpu0_DTLB WRITEBACK ACCESS:          0  HIT:          0  MISS:          0
cpu0_DTLB TRANSLATION ACCESS:          0  HIT:          0  MISS:          0
cpu0_DTLB PREFETCH  REQUESTED:          0  ISSUED:          0  USEFUL:          0  USELESS:          0
cpu0_DTLB AVERAGE MISS LATENCY: 11.9751 cycles
cpu0_ITLB TOTAL     ACCESS:   12954871  HIT:   12954871  MISS:          0
cpu0_ITLB LOAD      ACCESS:   12954871  HIT:   12954871  MISS:          0
cpu0_ITLB RFO       ACCESS:          0  HIT:          0  MISS:          0
cpu0_ITLB PREFETCH  ACCESS:          0  HIT:          0  MISS:          0
cpu0_ITLB WRITEBACK ACCESS:          0  HIT:          0  MISS:          0
cpu0_ITLB TRANSLATION ACCESS:          0  HIT:          0  MISS:          0
cpu0_ITLB PREFETCH  REQUESTED:          0  ISSUED:          0  USEFUL:          0  USELESS:          0
cpu0_ITLB AVERAGE MISS LATENCY: -nan cycles
cpu0_L1I TOTAL     ACCESS:         19  HIT:         14  MISS:          5
cpu0_L1I LOAD      ACCESS:         19  HIT:         14  MISS:          5
cpu0_L1I RFO       ACCESS:          0  HIT:          0  MISS:          0
cpu0_L1I PREFETCH  ACCESS:          0  HIT:          0  MISS:          0
cpu0_L1I WRITEBACK ACCESS:          0  HIT:          0  MISS:          0
cpu0_L1I TRANSLATION ACCESS:          0  HIT:          0  MISS:          0
cpu0_L1I PREFETCH  REQUESTED:          0  ISSUED:          0  USEFUL:          0  USELESS:          0
cpu0_L1I AVERAGE MISS LATENCY: 194.4 cycles
cpu0_STLB TOTAL     ACCESS:   10821930  HIT:    9710670  MISS:    1111260
cpu0_STLB LOAD      ACCESS:   10454761  HIT:    9350267  MISS:    1104494
cpu0_STLB RFO       ACCESS:     367169  HIT:     360403  MISS:       6766
cpu0_STLB PREFETCH  ACCESS:          0  HIT:          0  MISS:          0
cpu0_STLB WRITEBACK ACCESS:          0  HIT:          0  MISS:          0
cpu0_STLB TRANSLATION ACCESS:          0  HIT:          0  MISS:          0
cpu0_STLB PREFETCH  REQUESTED:          0  ISSUED:          0  USEFUL:          0  USELESS:          0
cpu0_STLB AVERAGE MISS LATENCY: 28.9352 cycles
cpu0_L1D TOTAL     ACCESS:   27618414  HIT:   14074563  MISS:   13543851
cpu0_L1D LOAD      ACCESS:   22271667  HIT:    9101819  MISS:   13169848
cpu0_L1D RFO       ACCESS:    4239368  HIT:    4034368  MISS:     205000
cpu0_L1D PREFETCH  ACCESS:          0  HIT:          0  MISS:          0
cpu0_L1D WRITEBACK ACCESS:          0  HIT:          0  MISS:          0
cpu0_L1D TRANSLATION ACCESS:    1107379  HIT:     938376  MISS:     169003
cpu0_L1D PREFETCH  REQUESTED:          0  ISSUED:          0  USEFUL:          0  USELESS:          0
cpu0_L1D AVERAGE MISS LATENCY: 163.274 cycles
cpu0_L2C TOTAL     ACCESS:   15650998  HIT:    6137780  MISS:    9513218
cpu0_L2C LOAD      ACCESS:   13169478  HIT:    3841483  MISS:    9327995
cpu0_L2C RFO       ACCESS:     204994  HIT:      71736  MISS:     133258
cpu0_L2C PREFETCH  ACCESS:          0  HIT:          0  MISS:          0
cpu0_L2C WRITEBACK ACCESS:    2107523  HIT:    2107170  MISS:        353
cpu0_L2C TRANSLATION ACCESS:     169003  HIT:     117391  MISS:      51612
cpu0_L2C PREFETCH  REQUESTED:          0  ISSUED:          0  USEFUL:          0  USELESS:          0
cpu0_L2C AVERAGE MISS LATENCY: 216.717 cycles
LLC TOTAL     ACCESS:   11017644  HIT:    4297399  MISS:    6720245
LLC LOAD      ACCESS:    9327993  HIT:    3405920  MISS:    5922073
LLC RFO       ACCESS:     133258  HIT:      63118  MISS:      70140
LLC PREFETCH  ACCESS:          0  HIT:          0  MISS:          0
LLC WRITEBACK ACCESS:    1504781  HIT:     821229  MISS:     683552
LLC TRANSLATION ACCESS:      51612  HIT:       7132  MISS:      44480
LLC PREFETCH  REQUESTED:          0  ISSUED:          0  USEFUL:          0  USELESS:          0
LLC AVERAGE MISS LATENCY: 277.059 cycles
OPTgen accesses: 172503
OPTgen hits: 73262
OPTgen hit rate: 42.47



DRAM Statistics
 CHANNEL 0
 RQ ROW_BUFFER_HIT:      18902  ROW_BUFFER_MISS:    6016914
 DBUS AVG_CONGESTED_CYCLE:    3.96581
 WQ ROW_BUFFER_HIT:      42284  ROW_BUFFER_MISS:    1016940  FULL:          0


CPU 0 Branch Prediction Accuracy: 85.5988% MPKI: 40.2398 Average ROB Occupancy at Mispredict: 17.1427
Branch type MPKI
BRANCH_DIRECT_JUMP: 4e-05
BRANCH_INDIRECT: 0
BRANCH_CONDITIONAL: 40.2397
BRANCH_DIRECT_CALL: 0
BRANCH_INDIRECT_CALL: 0
BRANCH_RETURN: 0

