
*** ChampSim Multicore Out-of-Order Simulator ***

Warmup Instructions: 10000000
Simulation Instructions: 100000000
Number of CPUs: 1
Off-chip DRAM Size: 4 GiB Channels: 1 Width: 64-bit Data Rate: 3200 MT/s

VirtualMemory physical capacity: 8588881920 num_ppages: 2096895
VirtualMemory page size: 4096 log2_page_size: 12

CPU 0 runs /datasets/cs240c-wi22-a00-public/data/Assignment2/bzip2_281B.trace.xz
CPU 0 Bimodal branch predictor
Basic BTB sets: 1024 ways: 8 indirect buffer size: 4096 RAS size: 64
Initialize Hawkeye state
Heartbeat CPU 0 instructions: 10000004 cycles: 3227491 heartbeat IPC: 3.09838 cumulative IPC: 3.09838 (Simulation time: 0 hr 0 min 43 sec) 

Warmup complete CPU 0 instructions: 10000004 cycles: 3227491 (Simulation time: 0 hr 0 min 43 sec) 

Heartbeat CPU 0 instructions: 20000000 cycles: 13921605 heartbeat IPC: 0.935093 cumulative IPC: 0.935093 (Simulation time: 0 hr 1 min 36 sec) 
Heartbeat CPU 0 instructions: 30000001 cycles: 26487903 heartbeat IPC: 0.795779 cumulative IPC: 0.85983 (Simulation time: 0 hr 2 min 56 sec) 
Heartbeat CPU 0 instructions: 40000002 cycles: 31125016 heartbeat IPC: 2.15651 cumulative IPC: 1.07536 (Simulation time: 0 hr 3 min 30 sec) 
Heartbeat CPU 0 instructions: 50000002 cycles: 36255993 heartbeat IPC: 1.94895 cumulative IPC: 1.21108 (Simulation time: 0 hr 4 min 6 sec) 
Heartbeat CPU 0 instructions: 60000000 cycles: 41442073 heartbeat IPC: 1.92824 cumulative IPC: 1.3084 (Simulation time: 0 hr 4 min 49 sec) 
Heartbeat CPU 0 instructions: 70000004 cycles: 48966399 heartbeat IPC: 1.32902 cumulative IPC: 1.31179 (Simulation time: 0 hr 5 min 55 sec) 
Heartbeat CPU 0 instructions: 80000003 cycles: 56580696 heartbeat IPC: 1.31332 cumulative IPC: 1.31201 (Simulation time: 0 hr 6 min 49 sec) 
Heartbeat CPU 0 instructions: 90000003 cycles: 62929583 heartbeat IPC: 1.57508 cumulative IPC: 1.33999 (Simulation time: 0 hr 7 min 27 sec) 
Heartbeat CPU 0 instructions: 100000001 cycles: 69544754 heartbeat IPC: 1.51168 cumulative IPC: 1.35711 (Simulation time: 0 hr 8 min 10 sec) 
Heartbeat CPU 0 instructions: 110000000 cycles: 76315724 heartbeat IPC: 1.47689 cumulative IPC: 1.36821 (Simulation time: 0 hr 8 min 53 sec) 
Finished CPU 0 instructions: 100000000 cycles: 73088235 cumulative IPC: 1.36821 (Simulation time: 0 hr 8 min 53 sec) 

ChampSim completed all CPUs

Region of Interest Statistics

CPU 0 cumulative IPC: 1.36821 instructions: 100000000 cycles: 73088235
cpu0_DTLB TOTAL     ACCESS:   19648006  HIT:   18889386  MISS:     758620
cpu0_DTLB LOAD      ACCESS:   13791388  HIT:   13145739  MISS:     645649
cpu0_DTLB RFO       ACCESS:    5856618  HIT:    5743647  MISS:     112971
cpu0_DTLB PREFETCH  ACCESS:          0  HIT:          0  MISS:          0
cpu0_DTLB WRITEBACK ACCESS:          0  HIT:          0  MISS:          0
cpu0_DTLB TRANSLATION ACCESS:          0  HIT:          0  MISS:          0
cpu0_DTLB PREFETCH  REQUESTED:          0  ISSUED:          0  USEFUL:          0  USELESS:          0
cpu0_DTLB AVERAGE MISS LATENCY: 9.33384 cycles
cpu0_ITLB TOTAL     ACCESS:    6409678  HIT:    6409664  MISS:         14
cpu0_ITLB LOAD      ACCESS:    6409678  HIT:    6409664  MISS:         14
cpu0_ITLB RFO       ACCESS:          0  HIT:          0  MISS:          0
cpu0_ITLB PREFETCH  ACCESS:          0  HIT:          0  MISS:          0
cpu0_ITLB WRITEBACK ACCESS:          0  HIT:          0  MISS:          0
cpu0_ITLB TRANSLATION ACCESS:          0  HIT:          0  MISS:          0
cpu0_ITLB PREFETCH  REQUESTED:          0  ISSUED:          0  USEFUL:          0  USELESS:          0
cpu0_ITLB AVERAGE MISS LATENCY: 222.429 cycles
cpu0_L1I TOTAL     ACCESS:    2685618  HIT:    2685264  MISS:        354
cpu0_L1I LOAD      ACCESS:    2685618  HIT:    2685264  MISS:        354
cpu0_L1I RFO       ACCESS:          0  HIT:          0  MISS:          0
cpu0_L1I PREFETCH  ACCESS:          0  HIT:          0  MISS:          0
cpu0_L1I WRITEBACK ACCESS:          0  HIT:          0  MISS:          0
cpu0_L1I TRANSLATION ACCESS:          0  HIT:          0  MISS:          0
cpu0_L1I PREFETCH  REQUESTED:          0  ISSUED:          0  USEFUL:          0  USELESS:          0
cpu0_L1I AVERAGE MISS LATENCY: 159.528 cycles
cpu0_STLB TOTAL     ACCESS:     758634  HIT:     757552  MISS:       1082
cpu0_STLB LOAD      ACCESS:     645663  HIT:     644756  MISS:        907
cpu0_STLB RFO       ACCESS:     112971  HIT:     112796  MISS:        175
cpu0_STLB PREFETCH  ACCESS:          0  HIT:          0  MISS:          0
cpu0_STLB WRITEBACK ACCESS:          0  HIT:          0  MISS:          0
cpu0_STLB TRANSLATION ACCESS:          0  HIT:          0  MISS:          0
cpu0_STLB PREFETCH  REQUESTED:          0  ISSUED:          0  USEFUL:          0  USELESS:          0
cpu0_STLB AVERAGE MISS LATENCY: 205.737 cycles
cpu0_L1D TOTAL     ACCESS:   23603355  HIT:   22004182  MISS:    1599173
cpu0_L1D LOAD      ACCESS:   13825265  HIT:   12432286  MISS:    1392979
cpu0_L1D RFO       ACCESS:    9777023  HIT:    9571334  MISS:     205689
cpu0_L1D PREFETCH  ACCESS:          0  HIT:          0  MISS:          0
cpu0_L1D WRITEBACK ACCESS:          0  HIT:          0  MISS:          0
cpu0_L1D TRANSLATION ACCESS:       1067  HIT:        562  MISS:        505
cpu0_L1D PREFETCH  REQUESTED:          0  ISSUED:          0  USEFUL:          0  USELESS:          0
cpu0_L1D AVERAGE MISS LATENCY: 92.4044 cycles
cpu0_L2C TOTAL     ACCESS:    1813809  HIT:     911869  MISS:     901940
cpu0_L2C LOAD      ACCESS:    1393329  HIT:     649136  MISS:     744193
cpu0_L2C RFO       ACCESS:     205679  HIT:      48158  MISS:     157521
cpu0_L2C PREFETCH  ACCESS:          0  HIT:          0  MISS:          0
cpu0_L2C WRITEBACK ACCESS:     214296  HIT:     214100  MISS:        196
cpu0_L2C TRANSLATION ACCESS:        505  HIT:        475  MISS:         30
cpu0_L2C PREFETCH  REQUESTED:          0  ISSUED:          0  USEFUL:          0  USELESS:          0
cpu0_L2C AVERAGE MISS LATENCY: 144.252 cycles
LLC TOTAL     ACCESS:    1060206  HIT:     831508  MISS:     228698
LLC LOAD      ACCESS:     744192  HIT:     611651  MISS:     132541
LLC RFO       ACCESS:     157511  HIT:      83979  MISS:      73532
LLC PREFETCH  ACCESS:          0  HIT:          0  MISS:          0
LLC WRITEBACK ACCESS:     158473  HIT:     135863  MISS:      22610
LLC TRANSLATION ACCESS:         30  HIT:         15  MISS:         15
LLC PREFETCH  REQUESTED:          0  ISSUED:          0  USEFUL:          0  USELESS:          0
LLC AVERAGE MISS LATENCY: 486.089 cycles
OPTgen accesses: 14749
OPTgen hits: 11711
OPTgen hit rate: 79.402



DRAM Statistics
 CHANNEL 0
 RQ ROW_BUFFER_HIT:      55242  ROW_BUFFER_MISS:     150512
 DBUS AVG_CONGESTED_CYCLE:    3.98497
 WQ ROW_BUFFER_HIT:       5866  ROW_BUFFER_MISS:      94047  FULL:        238


CPU 0 Branch Prediction Accuracy: 91.2056% MPKI: 12.1715 Average ROB Occupancy at Mispredict: 69.9237
Branch type MPKI
BRANCH_DIRECT_JUMP: 0.00059
BRANCH_INDIRECT: 0
BRANCH_CONDITIONAL: 12.1706
BRANCH_DIRECT_CALL: 0.00014
BRANCH_INDIRECT_CALL: 0
BRANCH_RETURN: 0.00019

