
*** ChampSim Multicore Out-of-Order Simulator ***

Warmup Instructions: 10000000
Simulation Instructions: 100000000
Number of CPUs: 1
Off-chip DRAM Size: 4 GiB Channels: 1 Width: 64-bit Data Rate: 3200 MT/s

VirtualMemory physical capacity: 8588881920 num_ppages: 2096895
VirtualMemory page size: 4096 log2_page_size: 12

CPU 0 runs /datasets/cs240c-wi22-a00-public/data/Assignment2/zeusmp_600B.trace.xz
CPU 0 Bimodal branch predictor
Basic BTB sets: 1024 ways: 8 indirect buffer size: 4096 RAS size: 64
Initialize Hawkeye state
Heartbeat CPU 0 instructions: 10000001 cycles: 2573841 heartbeat IPC: 3.88524 cumulative IPC: 3.88524 (Simulation time: 0 hr 0 min 30 sec) 

Warmup complete CPU 0 instructions: 10000001 cycles: 2573841 (Simulation time: 0 hr 0 min 30 sec) 

Heartbeat CPU 0 instructions: 20000001 cycles: 7429483 heartbeat IPC: 2.05946 cumulative IPC: 2.05946 (Simulation time: 0 hr 1 min 12 sec) 
Heartbeat CPU 0 instructions: 30000004 cycles: 12862637 heartbeat IPC: 1.84055 cumulative IPC: 1.94386 (Simulation time: 0 hr 1 min 54 sec) 
Heartbeat CPU 0 instructions: 40000000 cycles: 18327423 heartbeat IPC: 1.8299 cumulative IPC: 1.90433 (Simulation time: 0 hr 2 min 36 sec) 
Heartbeat CPU 0 instructions: 50000001 cycles: 23807717 heartbeat IPC: 1.82472 cumulative IPC: 1.88378 (Simulation time: 0 hr 3 min 15 sec) 
Heartbeat CPU 0 instructions: 60000000 cycles: 29308237 heartbeat IPC: 1.81801 cumulative IPC: 1.87025 (Simulation time: 0 hr 3 min 56 sec) 
Heartbeat CPU 0 instructions: 70000003 cycles: 34800483 heartbeat IPC: 1.82075 cumulative IPC: 1.86181 (Simulation time: 0 hr 4 min 37 sec) 
Heartbeat CPU 0 instructions: 80000000 cycles: 40279340 heartbeat IPC: 1.8252 cumulative IPC: 1.85649 (Simulation time: 0 hr 5 min 19 sec) 
Heartbeat CPU 0 instructions: 90000001 cycles: 45803311 heartbeat IPC: 1.81029 cumulative IPC: 1.85059 (Simulation time: 0 hr 6 min 1 sec) 
Heartbeat CPU 0 instructions: 100000001 cycles: 51307082 heartbeat IPC: 1.81694 cumulative IPC: 1.84679 (Simulation time: 0 hr 6 min 44 sec) 
Heartbeat CPU 0 instructions: 110000003 cycles: 56816393 heartbeat IPC: 1.81511 cumulative IPC: 1.84357 (Simulation time: 0 hr 7 min 28 sec) 
Finished CPU 0 instructions: 100000002 cycles: 54242552 cumulative IPC: 1.84357 (Simulation time: 0 hr 7 min 28 sec) 

ChampSim completed all CPUs

Region of Interest Statistics

CPU 0 cumulative IPC: 1.84357 instructions: 100000002 cycles: 54242552
cpu0_DTLB TOTAL     ACCESS:   17107188  HIT:   16951820  MISS:     155368
cpu0_DTLB LOAD      ACCESS:   12988126  HIT:   12859797  MISS:     128329
cpu0_DTLB RFO       ACCESS:    4119062  HIT:    4092023  MISS:      27039
cpu0_DTLB PREFETCH  ACCESS:          0  HIT:          0  MISS:          0
cpu0_DTLB WRITEBACK ACCESS:          0  HIT:          0  MISS:          0
cpu0_DTLB TRANSLATION ACCESS:          0  HIT:          0  MISS:          0
cpu0_DTLB PREFETCH  REQUESTED:          0  ISSUED:          0  USEFUL:          0  USELESS:          0
cpu0_DTLB AVERAGE MISS LATENCY: 15.4671 cycles
cpu0_ITLB TOTAL     ACCESS:    2610700  HIT:    2610697  MISS:          3
cpu0_ITLB LOAD      ACCESS:    2610700  HIT:    2610697  MISS:          3
cpu0_ITLB RFO       ACCESS:          0  HIT:          0  MISS:          0
cpu0_ITLB PREFETCH  ACCESS:          0  HIT:          0  MISS:          0
cpu0_ITLB WRITEBACK ACCESS:          0  HIT:          0  MISS:          0
cpu0_ITLB TRANSLATION ACCESS:          0  HIT:          0  MISS:          0
cpu0_ITLB PREFETCH  REQUESTED:          0  ISSUED:          0  USEFUL:          0  USELESS:          0
cpu0_ITLB AVERAGE MISS LATENCY: 378.667 cycles
cpu0_L1I TOTAL     ACCESS:    5803752  HIT:    5803649  MISS:        103
cpu0_L1I LOAD      ACCESS:    5803752  HIT:    5803649  MISS:        103
cpu0_L1I RFO       ACCESS:          0  HIT:          0  MISS:          0
cpu0_L1I PREFETCH  ACCESS:          0  HIT:          0  MISS:          0
cpu0_L1I WRITEBACK ACCESS:          0  HIT:          0  MISS:          0
cpu0_L1I TRANSLATION ACCESS:          0  HIT:          0  MISS:          0
cpu0_L1I PREFETCH  REQUESTED:          0  ISSUED:          0  USEFUL:          0  USELESS:          0
cpu0_L1I AVERAGE MISS LATENCY: 259.301 cycles
cpu0_STLB TOTAL     ACCESS:     155371  HIT:     150380  MISS:       4991
cpu0_STLB LOAD      ACCESS:     128332  HIT:     123393  MISS:       4939
cpu0_STLB RFO       ACCESS:      27039  HIT:      26987  MISS:         52
cpu0_STLB PREFETCH  ACCESS:          0  HIT:          0  MISS:          0
cpu0_STLB WRITEBACK ACCESS:          0  HIT:          0  MISS:          0
cpu0_STLB TRANSLATION ACCESS:          0  HIT:          0  MISS:          0
cpu0_STLB PREFETCH  REQUESTED:          0  ISSUED:          0  USEFUL:          0  USELESS:          0
cpu0_STLB AVERAGE MISS LATENCY: 193.238 cycles
cpu0_L1D TOTAL     ACCESS:   20413049  HIT:   20092131  MISS:     320918
cpu0_L1D LOAD      ACCESS:   13176033  HIT:   12858889  MISS:     317144
cpu0_L1D RFO       ACCESS:    7232026  HIT:    7228579  MISS:       3447
cpu0_L1D PREFETCH  ACCESS:          0  HIT:          0  MISS:          0
cpu0_L1D WRITEBACK ACCESS:          0  HIT:          0  MISS:          0
cpu0_L1D TRANSLATION ACCESS:       4990  HIT:       4663  MISS:        327
cpu0_L1D PREFETCH  REQUESTED:          0  ISSUED:          0  USEFUL:          0  USELESS:          0
cpu0_L1D AVERAGE MISS LATENCY: 183.497 cycles
cpu0_L2C TOTAL     ACCESS:     383991  HIT:      66698  MISS:     317293
cpu0_L2C LOAD      ACCESS:     317247  HIT:       3425  MISS:     313822
cpu0_L2C RFO       ACCESS:       3447  HIT:          1  MISS:       3446
cpu0_L2C PREFETCH  ACCESS:          0  HIT:          0  MISS:          0
cpu0_L2C WRITEBACK ACCESS:      62970  HIT:      62970  MISS:          0
cpu0_L2C TRANSLATION ACCESS:        327  HIT:        302  MISS:         25
cpu0_L2C PREFETCH  REQUESTED:          0  ISSUED:          0  USEFUL:          0  USELESS:          0
cpu0_L2C AVERAGE MISS LATENCY: 174.535 cycles
LLC TOTAL     ACCESS:     380236  HIT:      10847  MISS:     369389
LLC LOAD      ACCESS:     313822  HIT:       5992  MISS:     307830
LLC RFO       ACCESS:       3446  HIT:          0  MISS:       3446
LLC PREFETCH  ACCESS:          0  HIT:          0  MISS:          0
LLC WRITEBACK ACCESS:      62943  HIT:       4845  MISS:      58098
LLC TRANSLATION ACCESS:         25  HIT:         10  MISS:         15
LLC PREFETCH  REQUESTED:          0  ISSUED:          0  USEFUL:          0  USELESS:          0
LLC AVERAGE MISS LATENCY: 131.882 cycles
OPTgen accesses: 5474
OPTgen hits: 334
OPTgen hit rate: 6.10157



DRAM Statistics
 CHANNEL 0
 RQ ROW_BUFFER_HIT:      59195  ROW_BUFFER_MISS:     252097
 DBUS AVG_CONGESTED_CYCLE:    3.74741
 WQ ROW_BUFFER_HIT:      22016  ROW_BUFFER_MISS:      43064  FULL:          0


CPU 0 Branch Prediction Accuracy: 96.8332% MPKI: 1.13776 Average ROB Occupancy at Mispredict: 151.909
Branch type MPKI
BRANCH_DIRECT_JUMP: 3e-05
BRANCH_INDIRECT: 0
BRANCH_CONDITIONAL: 1.13771
BRANCH_DIRECT_CALL: 1e-05
BRANCH_INDIRECT_CALL: 0
BRANCH_RETURN: 1e-05

