
*** ChampSim Multicore Out-of-Order Simulator ***

Warmup Instructions: 10000000
Simulation Instructions: 100000000
Number of CPUs: 1
Off-chip DRAM Size: 4 GiB Channels: 1 Width: 64-bit Data Rate: 3200 MT/s

VirtualMemory physical capacity: 8588881920 num_ppages: 2096895
VirtualMemory page size: 4096 log2_page_size: 12

CPU 0 runs /datasets/cs240c-wi22-a00-public/data/Assignment2/lbm_1004B.trace.xz
CPU 0 Bimodal branch predictor
Basic BTB sets: 1024 ways: 8 indirect buffer size: 4096 RAS size: 64
Initialize Hawkeye state
Heartbeat CPU 0 instructions: 10000003 cycles: 2504746 heartbeat IPC: 3.99242 cumulative IPC: 3.99242 (Simulation time: 0 hr 0 min 29 sec) 

Warmup complete CPU 0 instructions: 10000003 cycles: 2504746 (Simulation time: 0 hr 0 min 29 sec) 

Heartbeat CPU 0 instructions: 20000004 cycles: 36325899 heartbeat IPC: 0.295673 cumulative IPC: 0.295673 (Simulation time: 0 hr 3 min 8 sec) 
Heartbeat CPU 0 instructions: 30000004 cycles: 66914615 heartbeat IPC: 0.326918 cumulative IPC: 0.310511 (Simulation time: 0 hr 5 min 34 sec) 
Heartbeat CPU 0 instructions: 40000004 cycles: 96069361 heartbeat IPC: 0.342997 cumulative IPC: 0.320634 (Simulation time: 0 hr 7 min 55 sec) 
Heartbeat CPU 0 instructions: 50000004 cycles: 125552067 heartbeat IPC: 0.339182 cumulative IPC: 0.325078 (Simulation time: 0 hr 10 min 19 sec) 
Heartbeat CPU 0 instructions: 60000004 cycles: 156205510 heartbeat IPC: 0.326228 cumulative IPC: 0.325307 (Simulation time: 0 hr 12 min 46 sec) 
Heartbeat CPU 0 instructions: 70000001 cycles: 190681079 heartbeat IPC: 0.29006 cumulative IPC: 0.31885 (Simulation time: 0 hr 15 min 25 sec) 
Heartbeat CPU 0 instructions: 80000000 cycles: 252285602 heartbeat IPC: 0.162326 cumulative IPC: 0.280246 (Simulation time: 0 hr 20 min 56 sec) 
Heartbeat CPU 0 instructions: 90000003 cycles: 285354937 heartbeat IPC: 0.302395 cumulative IPC: 0.282835 (Simulation time: 0 hr 23 min 31 sec) 
Heartbeat CPU 0 instructions: 100000000 cycles: 322002942 heartbeat IPC: 0.272866 cumulative IPC: 0.281692 (Simulation time: 0 hr 26 min 20 sec) 
Heartbeat CPU 0 instructions: 110000003 cycles: 360540264 heartbeat IPC: 0.259489 cumulative IPC: 0.279302 (Simulation time: 0 hr 29 min 19 sec) 
Finished CPU 0 instructions: 100000000 cycles: 358035518 cumulative IPC: 0.279302 (Simulation time: 0 hr 29 min 19 sec) 

ChampSim completed all CPUs

Region of Interest Statistics

CPU 0 cumulative IPC: 0.279302 instructions: 100000000 cycles: 358035518
cpu0_DTLB TOTAL     ACCESS:   13664368  HIT:   13613918  MISS:      50450
cpu0_DTLB LOAD      ACCESS:    6948975  HIT:    6936356  MISS:      12619
cpu0_DTLB RFO       ACCESS:    6715393  HIT:    6677562  MISS:      37831
cpu0_DTLB PREFETCH  ACCESS:          0  HIT:          0  MISS:          0
cpu0_DTLB WRITEBACK ACCESS:          0  HIT:          0  MISS:          0
cpu0_DTLB TRANSLATION ACCESS:          0  HIT:          0  MISS:          0
cpu0_DTLB PREFETCH  REQUESTED:          0  ISSUED:          0  USEFUL:          0  USELESS:          0
cpu0_DTLB AVERAGE MISS LATENCY: 377.481 cycles
cpu0_ITLB TOTAL     ACCESS:     118772  HIT:     118771  MISS:          1
cpu0_ITLB LOAD      ACCESS:     118772  HIT:     118771  MISS:          1
cpu0_ITLB RFO       ACCESS:          0  HIT:          0  MISS:          0
cpu0_ITLB PREFETCH  ACCESS:          0  HIT:          0  MISS:          0
cpu0_ITLB WRITEBACK ACCESS:          0  HIT:          0  MISS:          0
cpu0_ITLB TRANSLATION ACCESS:          0  HIT:          0  MISS:          0
cpu0_ITLB PREFETCH  REQUESTED:          0  ISSUED:          0  USEFUL:          0  USELESS:          0
cpu0_ITLB AVERAGE MISS LATENCY: 2480 cycles
cpu0_L1I TOTAL     ACCESS:         12  HIT:          6  MISS:          6
cpu0_L1I LOAD      ACCESS:         12  HIT:          6  MISS:          6
cpu0_L1I RFO       ACCESS:          0  HIT:          0  MISS:          0
cpu0_L1I PREFETCH  ACCESS:          0  HIT:          0  MISS:          0
cpu0_L1I WRITEBACK ACCESS:          0  HIT:          0  MISS:          0
cpu0_L1I TRANSLATION ACCESS:          0  HIT:          0  MISS:          0
cpu0_L1I PREFETCH  REQUESTED:          0  ISSUED:          0  USEFUL:          0  USELESS:          0
cpu0_L1I AVERAGE MISS LATENCY: 984.667 cycles
cpu0_STLB TOTAL     ACCESS:      50451  HIT:          5  MISS:      50446
cpu0_STLB LOAD      ACCESS:      12620  HIT:          0  MISS:      12620
cpu0_STLB RFO       ACCESS:      37831  HIT:          5  MISS:      37826
cpu0_STLB PREFETCH  ACCESS:          0  HIT:          0  MISS:          0
cpu0_STLB WRITEBACK ACCESS:          0  HIT:          0  MISS:          0
cpu0_STLB TRANSLATION ACCESS:          0  HIT:          0  MISS:          0
cpu0_STLB PREFETCH  REQUESTED:          0  ISSUED:          0  USEFUL:          0  USELESS:          0
cpu0_STLB AVERAGE MISS LATENCY: 368.559 cycles
cpu0_L1D TOTAL     ACCESS:   15133257  HIT:    9812731  MISS:    5320526
cpu0_L1D LOAD      ACCESS:    4358081  HIT:    3551718  MISS:     806363
cpu0_L1D RFO       ACCESS:   10724742  HIT:    6210628  MISS:    4514114
cpu0_L1D PREFETCH  ACCESS:          0  HIT:          0  MISS:          0
cpu0_L1D WRITEBACK ACCESS:          0  HIT:          0  MISS:          0
cpu0_L1D TRANSLATION ACCESS:      50434  HIT:      50385  MISS:         49
cpu0_L1D PREFETCH  REQUESTED:          0  ISSUED:          0  USEFUL:          0  USELESS:          0
cpu0_L1D AVERAGE MISS LATENCY: 498.54 cycles
cpu0_L2C TOTAL     ACCESS:    9834648  HIT:    6608173  MISS:    3226475
cpu0_L2C LOAD      ACCESS:     806369  HIT:        193  MISS:     806176
cpu0_L2C RFO       ACCESS:    4514114  HIT:    2093957  MISS:    2420157
cpu0_L2C PREFETCH  ACCESS:          0  HIT:          0  MISS:          0
cpu0_L2C WRITEBACK ACCESS:    4514116  HIT:    4514023  MISS:         93
cpu0_L2C TRANSLATION ACCESS:         49  HIT:          0  MISS:         49
cpu0_L2C PREFETCH  REQUESTED:          0  ISSUED:          0  USEFUL:          0  USELESS:          0
cpu0_L2C AVERAGE MISS LATENCY: 802.606 cycles
LLC TOTAL     ACCESS:    5646869  HIT:     912356  MISS:    4734513
LLC LOAD      ACCESS:     806176  HIT:         57  MISS:     806119
LLC RFO       ACCESS:    2420157  HIT:     364583  MISS:    2055574
LLC PREFETCH  ACCESS:          0  HIT:          0  MISS:          0
LLC WRITEBACK ACCESS:    2420487  HIT:     547693  MISS:    1872794
LLC TRANSLATION ACCESS:         49  HIT:         23  MISS:         26
LLC PREFETCH  REQUESTED:          0  ISSUED:          0  USEFUL:          0  USELESS:          0
LLC AVERAGE MISS LATENCY: 532.649 cycles
OPTgen accesses: 55035
OPTgen hits: 1189
OPTgen hit rate: 2.16044



DRAM Statistics
 CHANNEL 0
 RQ ROW_BUFFER_HIT:      49850  ROW_BUFFER_MISS:    2811845
 DBUS AVG_CONGESTED_CYCLE:    3.99531
 WQ ROW_BUFFER_HIT:      31936  ROW_BUFFER_MISS:    2141381  FULL:          1


CPU 0 Branch Prediction Accuracy: 99.2476% MPKI: 0.09355 Average ROB Occupancy at Mispredict: 169.618
Branch type MPKI
BRANCH_DIRECT_JUMP: 2e-05
BRANCH_INDIRECT: 0
BRANCH_CONDITIONAL: 0.09349
BRANCH_DIRECT_CALL: 2e-05
BRANCH_INDIRECT_CALL: 0
BRANCH_RETURN: 2e-05

