
*** ChampSim Multicore Out-of-Order Simulator ***

Warmup Instructions: 10000000
Simulation Instructions: 100000000
Number of CPUs: 1
Off-chip DRAM Size: 4 GiB Channels: 1 Width: 64-bit Data Rate: 3200 MT/s

VirtualMemory physical capacity: 8588881920 num_ppages: 2096895
VirtualMemory page size: 4096 log2_page_size: 12

CPU 0 runs /datasets/cs240c-wi22-a00-public/data/Assignment2/leslie3d_1186B.trace.xz
CPU 0 Bimodal branch predictor
Basic BTB sets: 1024 ways: 8 indirect buffer size: 4096 RAS size: 64
Initialize Hawkeye state
Heartbeat CPU 0 instructions: 10000000 cycles: 4308796 heartbeat IPC: 2.32083 cumulative IPC: 2.32083 (Simulation time: 0 hr 1 min 6 sec) 

Warmup complete CPU 0 instructions: 10000005 cycles: 4308797 (Simulation time: 0 hr 1 min 6 sec) 

Heartbeat CPU 0 instructions: 20000000 cycles: 18696887 heartbeat IPC: 0.695019 cumulative IPC: 0.695019 (Simulation time: 0 hr 3 min 5 sec) 
Heartbeat CPU 0 instructions: 30000000 cycles: 33226055 heartbeat IPC: 0.688271 cumulative IPC: 0.691628 (Simulation time: 0 hr 5 min 7 sec) 
Heartbeat CPU 0 instructions: 40000004 cycles: 47830493 heartbeat IPC: 0.684724 cumulative IPC: 0.689311 (Simulation time: 0 hr 7 min 8 sec) 
Heartbeat CPU 0 instructions: 50000001 cycles: 64820237 heartbeat IPC: 0.58859 cumulative IPC: 0.661032 (Simulation time: 0 hr 9 min 14 sec) 
Heartbeat CPU 0 instructions: 60000000 cycles: 100364541 heartbeat IPC: 0.281339 cumulative IPC: 0.520531 (Simulation time: 0 hr 12 min 52 sec) 
Heartbeat CPU 0 instructions: 70000000 cycles: 129500778 heartbeat IPC: 0.343215 cumulative IPC: 0.479264 (Simulation time: 0 hr 16 min 7 sec) 
Heartbeat CPU 0 instructions: 80000003 cycles: 140080974 heartbeat IPC: 0.945162 cumulative IPC: 0.51557 (Simulation time: 0 hr 17 min 54 sec) 
Heartbeat CPU 0 instructions: 90000002 cycles: 150380963 heartbeat IPC: 0.970875 cumulative IPC: 0.547674 (Simulation time: 0 hr 19 min 41 sec) 
Heartbeat CPU 0 instructions: 100000000 cycles: 160620131 heartbeat IPC: 0.976642 cumulative IPC: 0.575774 (Simulation time: 0 hr 21 min 28 sec) 
Heartbeat CPU 0 instructions: 110000000 cycles: 170887865 heartbeat IPC: 0.973925 cumulative IPC: 0.600316 (Simulation time: 0 hr 23 min 16 sec) 
Finished CPU 0 instructions: 100000000 cycles: 166579069 cumulative IPC: 0.600316 (Simulation time: 0 hr 23 min 16 sec) 

ChampSim completed all CPUs

Region of Interest Statistics

CPU 0 cumulative IPC: 0.600316 instructions: 100000000 cycles: 166579069
cpu0_DTLB TOTAL     ACCESS:   27973558  HIT:   27875863  MISS:      97695
cpu0_DTLB LOAD      ACCESS:   23304808  HIT:   23218864  MISS:      85944
cpu0_DTLB RFO       ACCESS:    4668750  HIT:    4656999  MISS:      11751
cpu0_DTLB PREFETCH  ACCESS:          0  HIT:          0  MISS:          0
cpu0_DTLB WRITEBACK ACCESS:          0  HIT:          0  MISS:          0
cpu0_DTLB TRANSLATION ACCESS:          0  HIT:          0  MISS:          0
cpu0_DTLB PREFETCH  REQUESTED:          0  ISSUED:          0  USEFUL:          0  USELESS:          0
cpu0_DTLB AVERAGE MISS LATENCY: 52.935 cycles
cpu0_ITLB TOTAL     ACCESS:    2900560  HIT:    2900547  MISS:         13
cpu0_ITLB LOAD      ACCESS:    2900560  HIT:    2900547  MISS:         13
cpu0_ITLB RFO       ACCESS:          0  HIT:          0  MISS:          0
cpu0_ITLB PREFETCH  ACCESS:          0  HIT:          0  MISS:          0
cpu0_ITLB WRITEBACK ACCESS:          0  HIT:          0  MISS:          0
cpu0_ITLB TRANSLATION ACCESS:          0  HIT:          0  MISS:          0
cpu0_ITLB PREFETCH  REQUESTED:          0  ISSUED:          0  USEFUL:          0  USELESS:          0
cpu0_ITLB AVERAGE MISS LATENCY: 294.231 cycles
cpu0_L1I TOTAL     ACCESS:    1734355  HIT:    1733975  MISS:        380
cpu0_L1I LOAD      ACCESS:    1734355  HIT:    1733975  MISS:        380
cpu0_L1I RFO       ACCESS:          0  HIT:          0  MISS:          0
cpu0_L1I PREFETCH  ACCESS:          0  HIT:          0  MISS:          0
cpu0_L1I WRITEBACK ACCESS:          0  HIT:          0  MISS:          0
cpu0_L1I TRANSLATION ACCESS:          0  HIT:          0  MISS:          0
cpu0_L1I PREFETCH  REQUESTED:          0  ISSUED:          0  USEFUL:          0  USELESS:          0
cpu0_L1I AVERAGE MISS LATENCY: 334.366 cycles
cpu0_STLB TOTAL     ACCESS:      97708  HIT:      70306  MISS:      27402
cpu0_STLB LOAD      ACCESS:      85957  HIT:      63230  MISS:      22727
cpu0_STLB RFO       ACCESS:      11751  HIT:       7076  MISS:       4675
cpu0_STLB PREFETCH  ACCESS:          0  HIT:          0  MISS:          0
cpu0_STLB WRITEBACK ACCESS:          0  HIT:          0  MISS:          0
cpu0_STLB TRANSLATION ACCESS:          0  HIT:          0  MISS:          0
cpu0_STLB PREFETCH  REQUESTED:          0  ISSUED:          0  USEFUL:          0  USELESS:          0
cpu0_STLB AVERAGE MISS LATENCY: 156.72 cycles
cpu0_L1D TOTAL     ACCESS:   26840775  HIT:   22938029  MISS:    3902746
cpu0_L1D LOAD      ACCESS:   17622717  HIT:   14439022  MISS:    3183695
cpu0_L1D RFO       ACCESS:    9193516  HIT:    8477908  MISS:     715608
cpu0_L1D PREFETCH  ACCESS:          0  HIT:          0  MISS:          0
cpu0_L1D WRITEBACK ACCESS:          0  HIT:          0  MISS:          0
cpu0_L1D TRANSLATION ACCESS:      24542  HIT:      21099  MISS:       3443
cpu0_L1D PREFETCH  REQUESTED:          0  ISSUED:          0  USEFUL:          0  USELESS:          0
cpu0_L1D AVERAGE MISS LATENCY: 377.228 cycles
cpu0_L2C TOTAL     ACCESS:    4956361  HIT:    2399050  MISS:    2557311
cpu0_L2C LOAD      ACCESS:    3184028  HIT:    1036796  MISS:    2147232
cpu0_L2C RFO       ACCESS:     715273  HIT:     307612  MISS:     407661
cpu0_L2C PREFETCH  ACCESS:          0  HIT:          0  MISS:          0
cpu0_L2C WRITEBACK ACCESS:    1053617  HIT:    1051410  MISS:       2207
cpu0_L2C TRANSLATION ACCESS:       3443  HIT:       3232  MISS:        211
cpu0_L2C PREFETCH  REQUESTED:          0  ISSUED:          0  USEFUL:          0  USELESS:          0
cpu0_L2C AVERAGE MISS LATENCY: 558.898 cycles
LLC TOTAL     ACCESS:    3217433  HIT:     783035  MISS:    2434398
LLC LOAD      ACCESS:    2147225  HIT:     464809  MISS:    1682416
LLC RFO       ACCESS:     407653  HIT:     116863  MISS:     290790
LLC PREFETCH  ACCESS:          0  HIT:          0  MISS:          0
LLC WRITEBACK ACCESS:     662344  HIT:     201285  MISS:     461059
LLC TRANSLATION ACCESS:        211  HIT:         78  MISS:        133
LLC PREFETCH  REQUESTED:          0  ISSUED:          0  USEFUL:          0  USELESS:          0
LLC AVERAGE MISS LATENCY: 565.045 cycles
OPTgen accesses: 43412
OPTgen hits: 9885
OPTgen hit rate: 22.7702



DRAM Statistics
 CHANNEL 0
 RQ ROW_BUFFER_HIT:     220350  ROW_BUFFER_MISS:    1752893
 DBUS AVG_CONGESTED_CYCLE:    3.94904
 WQ ROW_BUFFER_HIT:      38577  ROW_BUFFER_MISS:     502015  FULL:      18706


CPU 0 Branch Prediction Accuracy: 96.8384% MPKI: 1.47634 Average ROB Occupancy at Mispredict: 312.38
Branch type MPKI
BRANCH_DIRECT_JUMP: 0.00016
BRANCH_INDIRECT: 0
BRANCH_CONDITIONAL: 1.47504
BRANCH_DIRECT_CALL: 0.00057
BRANCH_INDIRECT_CALL: 0
BRANCH_RETURN: 0.00057

