
*** ChampSim Multicore Out-of-Order Simulator ***

Warmup Instructions: 10000000
Simulation Instructions: 100000000
Number of CPUs: 1
Off-chip DRAM Size: 4 GiB Channels: 1 Width: 64-bit Data Rate: 3200 MT/s

VirtualMemory physical capacity: 8588881920 num_ppages: 2096895
VirtualMemory page size: 4096 log2_page_size: 12

CPU 0 runs /datasets/cs240c-wi22-a00-public/data/Assignment2/omnetpp_340B.trace.xz
CPU 0 Bimodal branch predictor
Basic BTB sets: 1024 ways: 8 indirect buffer size: 4096 RAS size: 64
Initialize Hawkeye state
Heartbeat CPU 0 instructions: 10000002 cycles: 2500207 heartbeat IPC: 3.99967 cumulative IPC: 3.99967 (Simulation time: 0 hr 0 min 33 sec) 

Warmup complete CPU 0 instructions: 10000002 cycles: 2500207 (Simulation time: 0 hr 0 min 33 sec) 

Heartbeat CPU 0 instructions: 20000000 cycles: 28064886 heartbeat IPC: 0.391165 cumulative IPC: 0.391165 (Simulation time: 0 hr 1 min 56 sec) 
Heartbeat CPU 0 instructions: 30000002 cycles: 53491924 heartbeat IPC: 0.393282 cumulative IPC: 0.392221 (Simulation time: 0 hr 3 min 18 sec) 
Heartbeat CPU 0 instructions: 40000000 cycles: 78114217 heartbeat IPC: 0.406136 cumulative IPC: 0.396752 (Simulation time: 0 hr 4 min 35 sec) 
Heartbeat CPU 0 instructions: 50000002 cycles: 103482576 heartbeat IPC: 0.394192 cumulative IPC: 0.396109 (Simulation time: 0 hr 5 min 53 sec) 
Heartbeat CPU 0 instructions: 60000001 cycles: 129026004 heartbeat IPC: 0.39149 cumulative IPC: 0.395176 (Simulation time: 0 hr 7 min 15 sec) 
Heartbeat CPU 0 instructions: 70000003 cycles: 155041911 heartbeat IPC: 0.38438 cumulative IPC: 0.393335 (Simulation time: 0 hr 8 min 30 sec) 
Heartbeat CPU 0 instructions: 80000003 cycles: 181690989 heartbeat IPC: 0.375248 cumulative IPC: 0.390645 (Simulation time: 0 hr 9 min 54 sec) 
Heartbeat CPU 0 instructions: 90000000 cycles: 207759845 heartbeat IPC: 0.383599 cumulative IPC: 0.38975 (Simulation time: 0 hr 11 min 11 sec) 
Heartbeat CPU 0 instructions: 100000002 cycles: 234026232 heartbeat IPC: 0.380715 cumulative IPC: 0.388725 (Simulation time: 0 hr 12 min 36 sec) 
Heartbeat CPU 0 instructions: 110000000 cycles: 258561798 heartbeat IPC: 0.407572 cumulative IPC: 0.390531 (Simulation time: 0 hr 13 min 55 sec) 
Finished CPU 0 instructions: 100000000 cycles: 256061593 cumulative IPC: 0.390531 (Simulation time: 0 hr 13 min 55 sec) 

ChampSim completed all CPUs

Region of Interest Statistics

CPU 0 cumulative IPC: 0.390531 instructions: 100000000 cycles: 256061593
cpu0_DTLB TOTAL     ACCESS:   23840994  HIT:   21943848  MISS:    1897146
cpu0_DTLB LOAD      ACCESS:   13873127  HIT:   12291902  MISS:    1581225
cpu0_DTLB RFO       ACCESS:    9967867  HIT:    9651946  MISS:     315921
cpu0_DTLB PREFETCH  ACCESS:          0  HIT:          0  MISS:          0
cpu0_DTLB WRITEBACK ACCESS:          0  HIT:          0  MISS:          0
cpu0_DTLB TRANSLATION ACCESS:          0  HIT:          0  MISS:          0
cpu0_DTLB PREFETCH  REQUESTED:          0  ISSUED:          0  USEFUL:          0  USELESS:          0
cpu0_DTLB AVERAGE MISS LATENCY: 13.1628 cycles
cpu0_ITLB TOTAL     ACCESS:   11128723  HIT:   11093356  MISS:      35367
cpu0_ITLB LOAD      ACCESS:   11128723  HIT:   11093356  MISS:      35367
cpu0_ITLB RFO       ACCESS:          0  HIT:          0  MISS:          0
cpu0_ITLB PREFETCH  ACCESS:          0  HIT:          0  MISS:          0
cpu0_ITLB WRITEBACK ACCESS:          0  HIT:          0  MISS:          0
cpu0_ITLB TRANSLATION ACCESS:          0  HIT:          0  MISS:          0
cpu0_ITLB PREFETCH  REQUESTED:          0  ISSUED:          0  USEFUL:          0  USELESS:          0
cpu0_ITLB AVERAGE MISS LATENCY: 9.28515 cycles
cpu0_L1I TOTAL     ACCESS:    8346969  HIT:    8340622  MISS:       6347
cpu0_L1I LOAD      ACCESS:    8346969  HIT:    8340622  MISS:       6347
cpu0_L1I RFO       ACCESS:          0  HIT:          0  MISS:          0
cpu0_L1I PREFETCH  ACCESS:          0  HIT:          0  MISS:          0
cpu0_L1I WRITEBACK ACCESS:          0  HIT:          0  MISS:          0
cpu0_L1I TRANSLATION ACCESS:          0  HIT:          0  MISS:          0
cpu0_L1I PREFETCH  REQUESTED:          0  ISSUED:          0  USEFUL:          0  USELESS:          0
cpu0_L1I AVERAGE MISS LATENCY: 51.3802 cycles
cpu0_STLB TOTAL     ACCESS:    1932513  HIT:    1457318  MISS:     475195
cpu0_STLB LOAD      ACCESS:    1616592  HIT:    1262691  MISS:     353901
cpu0_STLB RFO       ACCESS:     315921  HIT:     194627  MISS:     121294
cpu0_STLB PREFETCH  ACCESS:          0  HIT:          0  MISS:          0
cpu0_STLB WRITEBACK ACCESS:          0  HIT:          0  MISS:          0
cpu0_STLB TRANSLATION ACCESS:          0  HIT:          0  MISS:          0
cpu0_STLB PREFETCH  REQUESTED:          0  ISSUED:          0  USEFUL:          0  USELESS:          0
cpu0_STLB AVERAGE MISS LATENCY: 16.17 cycles
cpu0_L1D TOTAL     ACCESS:   31459647  HIT:   28961741  MISS:    2497906
cpu0_L1D LOAD      ACCESS:   15711019  HIT:   13528254  MISS:    2182765
cpu0_L1D RFO       ACCESS:   15308252  HIT:   14997619  MISS:     310633
cpu0_L1D PREFETCH  ACCESS:          0  HIT:          0  MISS:          0
cpu0_L1D WRITEBACK ACCESS:          0  HIT:          0  MISS:          0
cpu0_L1D TRANSLATION ACCESS:     440376  HIT:     435868  MISS:       4508
cpu0_L1D PREFETCH  REQUESTED:          0  ISSUED:          0  USEFUL:          0  USELESS:          0
cpu0_L1D AVERAGE MISS LATENCY: 143.936 cycles
cpu0_L2C TOTAL     ACCESS:    3581313  HIT:    1431321  MISS:    2149992
cpu0_L2C LOAD      ACCESS:    2189074  HIT:     330866  MISS:    1858208
cpu0_L2C RFO       ACCESS:     310633  HIT:      22220  MISS:     288413
cpu0_L2C PREFETCH  ACCESS:          0  HIT:          0  MISS:          0
cpu0_L2C WRITEBACK ACCESS:    1077098  HIT:    1074824  MISS:       2274
cpu0_L2C TRANSLATION ACCESS:       4508  HIT:       3411  MISS:       1097
cpu0_L2C PREFETCH  REQUESTED:          0  ISSUED:          0  USEFUL:          0  USELESS:          0
cpu0_L2C AVERAGE MISS LATENCY: 154.409 cycles
LLC TOTAL     ACCESS:    3079022  HIT:    1001554  MISS:    2077468
LLC LOAD      ACCESS:    1858207  HIT:     416090  MISS:    1442117
LLC RFO       ACCESS:     288413  HIT:      77703  MISS:     210710
LLC PREFETCH  ACCESS:          0  HIT:          0  MISS:          0
LLC WRITEBACK ACCESS:     931305  HIT:     507102  MISS:     424203
LLC TRANSLATION ACCESS:       1097  HIT:        659  MISS:        438
LLC PREFETCH  REQUESTED:          0  ISSUED:          0  USEFUL:          0  USELESS:          0
LLC AVERAGE MISS LATENCY: 138.089 cycles
OPTgen accesses: 36911
OPTgen hits: 14796
OPTgen hit rate: 40.0856



DRAM Statistics
 CHANNEL 0
 RQ ROW_BUFFER_HIT:      94248  ROW_BUFFER_MISS:    1558875
 DBUS AVG_CONGESTED_CYCLE:    3.92174
 WQ ROW_BUFFER_HIT:     175598  ROW_BUFFER_MISS:     522655  FULL:          0


CPU 0 Branch Prediction Accuracy: 94.4212% MPKI: 13.4017 Average ROB Occupancy at Mispredict: 52.0892
Branch type MPKI
BRANCH_DIRECT_JUMP: 0.00017
BRANCH_INDIRECT: 0.04543
BRANCH_CONDITIONAL: 13.2857
BRANCH_DIRECT_CALL: 8e-05
BRANCH_INDIRECT_CALL: 0.04734
BRANCH_RETURN: 0.02301

