
*** ChampSim Multicore Out-of-Order Simulator ***

Warmup Instructions: 10000000
Simulation Instructions: 100000000
Number of CPUs: 1
Off-chip DRAM Size: 4 GiB Channels: 1 Width: 64-bit Data Rate: 3200 MT/s

VirtualMemory physical capacity: 8588881920 num_ppages: 2096895
VirtualMemory page size: 4096 log2_page_size: 12

CPU 0 runs /datasets/cs240c-wi22-a00-public/data/Assignment2/zeusmp_100B.trace.xz
CPU 0 Bimodal branch predictor
Basic BTB sets: 1024 ways: 8 indirect buffer size: 4096 RAS size: 64
Initialize SRRIP state
Heartbeat CPU 0 instructions: 10000000 cycles: 2533557 heartbeat IPC: 3.94702 cumulative IPC: 3.94702 (Simulation time: 0 hr 0 min 24 sec) 

Warmup complete CPU 0 instructions: 10000004 cycles: 2533558 (Simulation time: 0 hr 0 min 24 sec) 

Heartbeat CPU 0 instructions: 20000003 cycles: 8018099 heartbeat IPC: 1.82331 cumulative IPC: 1.82331 (Simulation time: 0 hr 1 min 10 sec) 
Heartbeat CPU 0 instructions: 30000000 cycles: 13931653 heartbeat IPC: 1.69103 cumulative IPC: 1.75468 (Simulation time: 0 hr 2 min 2 sec) 
Heartbeat CPU 0 instructions: 40000004 cycles: 19858221 heartbeat IPC: 1.68732 cumulative IPC: 1.73164 (Simulation time: 0 hr 2 min 51 sec) 
Heartbeat CPU 0 instructions: 50000001 cycles: 25756701 heartbeat IPC: 1.69535 cumulative IPC: 1.72242 (Simulation time: 0 hr 3 min 39 sec) 
Heartbeat CPU 0 instructions: 60000004 cycles: 31674426 heartbeat IPC: 1.68984 cumulative IPC: 1.7158 (Simulation time: 0 hr 4 min 28 sec) 
Heartbeat CPU 0 instructions: 70000001 cycles: 37556618 heartbeat IPC: 1.70005 cumulative IPC: 1.71316 (Simulation time: 0 hr 5 min 15 sec) 
Heartbeat CPU 0 instructions: 80000001 cycles: 43470296 heartbeat IPC: 1.69099 cumulative IPC: 1.70996 (Simulation time: 0 hr 6 min 2 sec) 
Heartbeat CPU 0 instructions: 90000000 cycles: 49383678 heartbeat IPC: 1.69108 cumulative IPC: 1.70757 (Simulation time: 0 hr 6 min 50 sec) 
Heartbeat CPU 0 instructions: 100000000 cycles: 55269535 heartbeat IPC: 1.69899 cumulative IPC: 1.70661 (Simulation time: 0 hr 7 min 37 sec) 
Heartbeat CPU 0 instructions: 110000003 cycles: 61190965 heartbeat IPC: 1.68878 cumulative IPC: 1.70481 (Simulation time: 0 hr 8 min 26 sec) 
Finished CPU 0 instructions: 100000004 cycles: 58657408 cumulative IPC: 1.70481 (Simulation time: 0 hr 8 min 26 sec) 

ChampSim completed all CPUs

Region of Interest Statistics

CPU 0 cumulative IPC: 1.70481 instructions: 100000004 cycles: 58657408
cpu0_DTLB TOTAL     ACCESS:   16444654  HIT:   12280175  MISS:    4164479
cpu0_DTLB LOAD      ACCESS:   11965874  HIT:    9308564  MISS:    2657310
cpu0_DTLB RFO       ACCESS:    4478780  HIT:    2971611  MISS:    1507169
cpu0_DTLB PREFETCH  ACCESS:          0  HIT:          0  MISS:          0
cpu0_DTLB WRITEBACK ACCESS:          0  HIT:          0  MISS:          0
cpu0_DTLB TRANSLATION ACCESS:          0  HIT:          0  MISS:          0
cpu0_DTLB PREFETCH  REQUESTED:          0  ISSUED:          0  USEFUL:          0  USELESS:          0
cpu0_DTLB AVERAGE MISS LATENCY: 10.4098 cycles
cpu0_ITLB TOTAL     ACCESS:    2227423  HIT:    2227422  MISS:          1
cpu0_ITLB LOAD      ACCESS:    2227423  HIT:    2227422  MISS:          1
cpu0_ITLB RFO       ACCESS:          0  HIT:          0  MISS:          0
cpu0_ITLB PREFETCH  ACCESS:          0  HIT:          0  MISS:          0
cpu0_ITLB WRITEBACK ACCESS:          0  HIT:          0  MISS:          0
cpu0_ITLB TRANSLATION ACCESS:          0  HIT:          0  MISS:          0
cpu0_ITLB PREFETCH  REQUESTED:          0  ISSUED:          0  USEFUL:          0  USELESS:          0
cpu0_ITLB AVERAGE MISS LATENCY: 411 cycles
cpu0_L1I TOTAL     ACCESS:    3117533  HIT:    3117482  MISS:         51
cpu0_L1I LOAD      ACCESS:    3117533  HIT:    3117482  MISS:         51
cpu0_L1I RFO       ACCESS:          0  HIT:          0  MISS:          0
cpu0_L1I PREFETCH  ACCESS:          0  HIT:          0  MISS:          0
cpu0_L1I WRITEBACK ACCESS:          0  HIT:          0  MISS:          0
cpu0_L1I TRANSLATION ACCESS:          0  HIT:          0  MISS:          0
cpu0_L1I PREFETCH  REQUESTED:          0  ISSUED:          0  USEFUL:          0  USELESS:          0
cpu0_L1I AVERAGE MISS LATENCY: 342.549 cycles
cpu0_STLB TOTAL     ACCESS:    4164480  HIT:    4156041  MISS:       8439
cpu0_STLB LOAD      ACCESS:    2657311  HIT:    2652148  MISS:       5163
cpu0_STLB RFO       ACCESS:    1507169  HIT:    1503893  MISS:       3276
cpu0_STLB PREFETCH  ACCESS:          0  HIT:          0  MISS:          0
cpu0_STLB WRITEBACK ACCESS:          0  HIT:          0  MISS:          0
cpu0_STLB TRANSLATION ACCESS:          0  HIT:          0  MISS:          0
cpu0_STLB PREFETCH  REQUESTED:          0  ISSUED:          0  USEFUL:          0  USELESS:          0
cpu0_STLB AVERAGE MISS LATENCY: 559.467 cycles
cpu0_L1D TOTAL     ACCESS:   19020969  HIT:   13986493  MISS:    5034476
cpu0_L1D LOAD      ACCESS:   12125840  HIT:    8891213  MISS:    3234627
cpu0_L1D RFO       ACCESS:    6886802  HIT:    5094650  MISS:    1792152
cpu0_L1D PREFETCH  ACCESS:          0  HIT:          0  MISS:          0
cpu0_L1D WRITEBACK ACCESS:          0  HIT:          0  MISS:          0
cpu0_L1D TRANSLATION ACCESS:       8327  HIT:        630  MISS:       7697
cpu0_L1D PREFETCH  REQUESTED:          0  ISSUED:          0  USEFUL:          0  USELESS:          0
cpu0_L1D AVERAGE MISS LATENCY: 86.4239 cycles
cpu0_L2C TOTAL     ACCESS:    6855175  HIT:    6267653  MISS:     587522
cpu0_L2C LOAD      ACCESS:    3234401  HIT:    2840442  MISS:     393959
cpu0_L2C RFO       ACCESS:    1790638  HIT:    1597376  MISS:     193262
cpu0_L2C PREFETCH  ACCESS:          0  HIT:          0  MISS:          0
cpu0_L2C WRITEBACK ACCESS:    1822439  HIT:    1822144  MISS:        295
cpu0_L2C TRANSLATION ACCESS:       7697  HIT:       7691  MISS:          6
cpu0_L2C PREFETCH  REQUESTED:          0  ISSUED:          0  USEFUL:          0  USELESS:          0
cpu0_L2C AVERAGE MISS LATENCY: 645.451 cycles
LLC TOTAL     ACCESS:     780572  HIT:     100937  MISS:     679635
LLC LOAD      ACCESS:     393959  HIT:      88074  MISS:     305885
LLC RFO       ACCESS:     193262  HIT:          0  MISS:     193262
LLC PREFETCH  ACCESS:          0  HIT:          0  MISS:          0
LLC WRITEBACK ACCESS:     193345  HIT:      12863  MISS:     180482
LLC TRANSLATION ACCESS:          6  HIT:          0  MISS:          6
LLC PREFETCH  REQUESTED:          0  ISSUED:          0  USEFUL:          0  USELESS:          0
LLC AVERAGE MISS LATENCY: 539.826 cycles
Insertion Distribution: 
	LOAD 88857 0 44737 201397 
	RFO 0 0 20685 184054 
	PREF 0 0 0 0 
	WRITEBACK 0 0 0 180794 
	 1 0 25 2 
Total Prefetch Downgrades: 0

DRAM Statistics
 CHANNEL 0
 RQ ROW_BUFFER_HIT:        185  ROW_BUFFER_MISS:     498968
 DBUS AVG_CONGESTED_CYCLE:    3.99928
 WQ ROW_BUFFER_HIT:        284  ROW_BUFFER_MISS:     200663  FULL:          0


CPU 0 Branch Prediction Accuracy: 99.0158% MPKI: 0.52371 Average ROB Occupancy at Mispredict: 235.797
Branch type MPKI
BRANCH_DIRECT_JUMP: 1e-05
BRANCH_INDIRECT: 0
BRANCH_CONDITIONAL: 0.5237
BRANCH_DIRECT_CALL: 0
BRANCH_INDIRECT_CALL: 0
BRANCH_RETURN: 0

