
*** ChampSim Multicore Out-of-Order Simulator ***

Warmup Instructions: 10000000
Simulation Instructions: 100000000
Number of CPUs: 1
Off-chip DRAM Size: 4 GiB Channels: 1 Width: 64-bit Data Rate: 3200 MT/s

VirtualMemory physical capacity: 8588881920 num_ppages: 2096895
VirtualMemory page size: 4096 log2_page_size: 12

CPU 0 runs /datasets/cs240c-wi22-a00-public/data/Assignment2/mcf_46B.trace.xz
CPU 0 Bimodal branch predictor
Basic BTB sets: 1024 ways: 8 indirect buffer size: 4096 RAS size: 64
Initialize SRRIP state
Heartbeat CPU 0 instructions: 10000002 cycles: 3434371 heartbeat IPC: 2.91174 cumulative IPC: 2.91174 (Simulation time: 0 hr 0 min 50 sec) 

Warmup complete CPU 0 instructions: 10000002 cycles: 3434371 (Simulation time: 0 hr 0 min 50 sec) 

Heartbeat CPU 0 instructions: 20000001 cycles: 106888023 heartbeat IPC: 0.0966616 cumulative IPC: 0.0966616 (Simulation time: 0 hr 4 min 2 sec) 
Heartbeat CPU 0 instructions: 30000004 cycles: 208683471 heartbeat IPC: 0.0982362 cumulative IPC: 0.0974426 (Simulation time: 0 hr 7 min 15 sec) 
Heartbeat CPU 0 instructions: 40000004 cycles: 311513628 heartbeat IPC: 0.0972477 cumulative IPC: 0.0973775 (Simulation time: 0 hr 10 min 28 sec) 
Heartbeat CPU 0 instructions: 50000003 cycles: 412385091 heartbeat IPC: 0.0991361 cumulative IPC: 0.0978113 (Simulation time: 0 hr 13 min 34 sec) 
Heartbeat CPU 0 instructions: 60000000 cycles: 519130544 heartbeat IPC: 0.0936808 cumulative IPC: 0.0969563 (Simulation time: 0 hr 16 min 54 sec) 
Heartbeat CPU 0 instructions: 70000004 cycles: 626852051 heartbeat IPC: 0.092832 cumulative IPC: 0.0962437 (Simulation time: 0 hr 20 min 17 sec) 
Heartbeat CPU 0 instructions: 80000003 cycles: 731368550 heartbeat IPC: 0.0956787 cumulative IPC: 0.0961625 (Simulation time: 0 hr 23 min 33 sec) 
Heartbeat CPU 0 instructions: 90000001 cycles: 835004217 heartbeat IPC: 0.0964919 cumulative IPC: 0.0962036 (Simulation time: 0 hr 26 min 41 sec) 
Heartbeat CPU 0 instructions: 100000001 cycles: 940344317 heartbeat IPC: 0.0949306 cumulative IPC: 0.0960605 (Simulation time: 0 hr 30 min 3 sec) 
Heartbeat CPU 0 instructions: 110000002 cycles: 1038627535 heartbeat IPC: 0.101747 cumulative IPC: 0.0966003 (Simulation time: 0 hr 33 min 12 sec) 
Finished CPU 0 instructions: 100000000 cycles: 1035193164 cumulative IPC: 0.0966003 (Simulation time: 0 hr 33 min 12 sec) 

ChampSim completed all CPUs

Region of Interest Statistics

CPU 0 cumulative IPC: 0.0966003 instructions: 100000000 cycles: 1035193164
cpu0_DTLB TOTAL     ACCESS:   23833311  HIT:   14564836  MISS:    9268475
cpu0_DTLB LOAD      ACCESS:   20103482  HIT:   11362754  MISS:    8740728
cpu0_DTLB RFO       ACCESS:    3729829  HIT:    3202082  MISS:     527747
cpu0_DTLB PREFETCH  ACCESS:          0  HIT:          0  MISS:          0
cpu0_DTLB WRITEBACK ACCESS:          0  HIT:          0  MISS:          0
cpu0_DTLB TRANSLATION ACCESS:          0  HIT:          0  MISS:          0
cpu0_DTLB PREFETCH  REQUESTED:          0  ISSUED:          0  USEFUL:          0  USELESS:          0
cpu0_DTLB AVERAGE MISS LATENCY: 11.2532 cycles
cpu0_ITLB TOTAL     ACCESS:   12720431  HIT:   12720431  MISS:          0
cpu0_ITLB LOAD      ACCESS:   12720431  HIT:   12720431  MISS:          0
cpu0_ITLB RFO       ACCESS:          0  HIT:          0  MISS:          0
cpu0_ITLB PREFETCH  ACCESS:          0  HIT:          0  MISS:          0
cpu0_ITLB WRITEBACK ACCESS:          0  HIT:          0  MISS:          0
cpu0_ITLB TRANSLATION ACCESS:          0  HIT:          0  MISS:          0
cpu0_ITLB PREFETCH  REQUESTED:          0  ISSUED:          0  USEFUL:          0  USELESS:          0
cpu0_ITLB AVERAGE MISS LATENCY: -nan cycles
cpu0_L1I TOTAL     ACCESS:         52  HIT:         52  MISS:          0
cpu0_L1I LOAD      ACCESS:         52  HIT:         52  MISS:          0
cpu0_L1I RFO       ACCESS:          0  HIT:          0  MISS:          0
cpu0_L1I PREFETCH  ACCESS:          0  HIT:          0  MISS:          0
cpu0_L1I WRITEBACK ACCESS:          0  HIT:          0  MISS:          0
cpu0_L1I TRANSLATION ACCESS:          0  HIT:          0  MISS:          0
cpu0_L1I PREFETCH  REQUESTED:          0  ISSUED:          0  USEFUL:          0  USELESS:          0
cpu0_L1I AVERAGE MISS LATENCY: -nan cycles
cpu0_STLB TOTAL     ACCESS:    9268475  HIT:    7944917  MISS:    1323558
cpu0_STLB LOAD      ACCESS:    8740728  HIT:    7428274  MISS:    1312454
cpu0_STLB RFO       ACCESS:     527747  HIT:     516643  MISS:      11104
cpu0_STLB PREFETCH  ACCESS:          0  HIT:          0  MISS:          0
cpu0_STLB WRITEBACK ACCESS:          0  HIT:          0  MISS:          0
cpu0_STLB TRANSLATION ACCESS:          0  HIT:          0  MISS:          0
cpu0_STLB PREFETCH  REQUESTED:          0  ISSUED:          0  USEFUL:          0  USELESS:          0
cpu0_STLB AVERAGE MISS LATENCY: 15.705 cycles
cpu0_L1D TOTAL     ACCESS:   28039833  HIT:   16262511  MISS:   11777322
cpu0_L1D LOAD      ACCESS:   21741320  HIT:   10438167  MISS:   11303153
cpu0_L1D RFO       ACCESS:    4979259  HIT:    4680395  MISS:     298864
cpu0_L1D PREFETCH  ACCESS:          0  HIT:          0  MISS:          0
cpu0_L1D WRITEBACK ACCESS:          0  HIT:          0  MISS:          0
cpu0_L1D TRANSLATION ACCESS:    1319254  HIT:    1143949  MISS:     175305
cpu0_L1D PREFETCH  REQUESTED:          0  ISSUED:          0  USEFUL:          0  USELESS:          0
cpu0_L1D AVERAGE MISS LATENCY: 241.638 cycles
cpu0_L2C TOTAL     ACCESS:   14262687  HIT:    5815349  MISS:    8447338
cpu0_L2C LOAD      ACCESS:   11302704  HIT:    3070348  MISS:    8232356
cpu0_L2C RFO       ACCESS:     298852  HIT:     121312  MISS:     177540
cpu0_L2C PREFETCH  ACCESS:          0  HIT:          0  MISS:          0
cpu0_L2C WRITEBACK ACCESS:    2485826  HIT:    2485228  MISS:        598
cpu0_L2C TRANSLATION ACCESS:     175305  HIT:     138461  MISS:      36844
cpu0_L2C PREFETCH  REQUESTED:          0  ISSUED:          0  USEFUL:          0  USELESS:          0
cpu0_L2C AVERAGE MISS LATENCY: 321.45 cycles
LLC TOTAL     ACCESS:   10355796  HIT:    4138798  MISS:    6216998
LLC LOAD      ACCESS:    8232355  HIT:    2911099  MISS:    5321256
LLC RFO       ACCESS:     177540  HIT:     133708  MISS:      43832
LLC PREFETCH  ACCESS:          0  HIT:          0  MISS:          0
LLC WRITEBACK ACCESS:    1909057  HIT:    1061727  MISS:     847330
LLC TRANSLATION ACCESS:      36844  HIT:      32264  MISS:       4580
LLC PREFETCH  REQUESTED:          0  ISSUED:          0  USEFUL:          0  USELESS:          0
LLC AVERAGE MISS LATENCY: 408.238 cycles
Insertion Distribution: 
	LOAD 0 0 83569 5760406 
	RFO 0 0 5632 44546 
	PREF 0 0 0 0 
	WRITEBACK 0 0 0 919677 
	 0 0 128 4595 
Total Prefetch Downgrades: 0

DRAM Statistics
 CHANNEL 0
 RQ ROW_BUFFER_HIT:      11613  ROW_BUFFER_MISS:    5357910
 DBUS AVG_CONGESTED_CYCLE:    3.93763
 WQ ROW_BUFFER_HIT:      38107  ROW_BUFFER_MISS:     830066  FULL:          0


CPU 0 Branch Prediction Accuracy: 85.442% MPKI: 39.3219 Average ROB Occupancy at Mispredict: 18.9341
Branch type MPKI
BRANCH_DIRECT_JUMP: 0
BRANCH_INDIRECT: 0
BRANCH_CONDITIONAL: 39.3219
BRANCH_DIRECT_CALL: 0
BRANCH_INDIRECT_CALL: 0
BRANCH_RETURN: 0

