
*** ChampSim Multicore Out-of-Order Simulator ***

Warmup Instructions: 10000000
Simulation Instructions: 100000000
Number of CPUs: 1
Off-chip DRAM Size: 4 GiB Channels: 1 Width: 64-bit Data Rate: 3200 MT/s

VirtualMemory physical capacity: 8588881920 num_ppages: 2096895
VirtualMemory page size: 4096 log2_page_size: 12

CPU 0 runs /datasets/cs240c-wi22-a00-public/data/Assignment2/sphinx3_883B.trace.xz
CPU 0 Bimodal branch predictor
Basic BTB sets: 1024 ways: 8 indirect buffer size: 4096 RAS size: 64
Initialize SRRIP state
Heartbeat CPU 0 instructions: 10000004 cycles: 2628880 heartbeat IPC: 3.8039 cumulative IPC: 3.8039 (Simulation time: 0 hr 0 min 35 sec) 

Warmup complete CPU 0 instructions: 10000004 cycles: 2628880 (Simulation time: 0 hr 0 min 35 sec) 

Heartbeat CPU 0 instructions: 20000000 cycles: 14690572 heartbeat IPC: 0.829071 cumulative IPC: 0.829071 (Simulation time: 0 hr 1 min 40 sec) 
Heartbeat CPU 0 instructions: 30000001 cycles: 26943924 heartbeat IPC: 0.816103 cumulative IPC: 0.822536 (Simulation time: 0 hr 2 min 46 sec) 
Heartbeat CPU 0 instructions: 40000004 cycles: 38671040 heartbeat IPC: 0.852725 cumulative IPC: 0.832359 (Simulation time: 0 hr 3 min 50 sec) 
Heartbeat CPU 0 instructions: 50000003 cycles: 50193686 heartbeat IPC: 0.867856 cumulative IPC: 0.840958 (Simulation time: 0 hr 4 min 52 sec) 
Heartbeat CPU 0 instructions: 60000000 cycles: 60679275 heartbeat IPC: 0.95369 cumulative IPC: 0.86132 (Simulation time: 0 hr 5 min 56 sec) 
Heartbeat CPU 0 instructions: 70000000 cycles: 69547601 heartbeat IPC: 1.12761 cumulative IPC: 0.89661 (Simulation time: 0 hr 6 min 51 sec) 
Heartbeat CPU 0 instructions: 80000000 cycles: 79644886 heartbeat IPC: 0.990365 cumulative IPC: 0.908902 (Simulation time: 0 hr 7 min 51 sec) 
Heartbeat CPU 0 instructions: 90000002 cycles: 87916067 heartbeat IPC: 1.20902 cumulative IPC: 0.938007 (Simulation time: 0 hr 8 min 44 sec) 
Heartbeat CPU 0 instructions: 100000000 cycles: 95490176 heartbeat IPC: 1.32029 cumulative IPC: 0.969187 (Simulation time: 0 hr 9 min 35 sec) 
Heartbeat CPU 0 instructions: 110000003 cycles: 105196536 heartbeat IPC: 1.03025 cumulative IPC: 0.974966 (Simulation time: 0 hr 10 min 33 sec) 
Finished CPU 0 instructions: 100000004 cycles: 102567657 cumulative IPC: 0.974966 (Simulation time: 0 hr 10 min 33 sec) 

ChampSim completed all CPUs

Region of Interest Statistics

CPU 0 cumulative IPC: 0.974966 instructions: 100000004 cycles: 102567657
cpu0_DTLB TOTAL     ACCESS:   16895879  HIT:   16735877  MISS:     160002
cpu0_DTLB LOAD      ACCESS:   15561058  HIT:   15409340  MISS:     151718
cpu0_DTLB RFO       ACCESS:    1334821  HIT:    1326537  MISS:       8284
cpu0_DTLB PREFETCH  ACCESS:          0  HIT:          0  MISS:          0
cpu0_DTLB WRITEBACK ACCESS:          0  HIT:          0  MISS:          0
cpu0_DTLB TRANSLATION ACCESS:          0  HIT:          0  MISS:          0
cpu0_DTLB PREFETCH  REQUESTED:          0  ISSUED:          0  USEFUL:          0  USELESS:          0
cpu0_DTLB AVERAGE MISS LATENCY: 12.771 cycles
cpu0_ITLB TOTAL     ACCESS:    9436701  HIT:    9436636  MISS:         65
cpu0_ITLB LOAD      ACCESS:    9436701  HIT:    9436636  MISS:         65
cpu0_ITLB RFO       ACCESS:          0  HIT:          0  MISS:          0
cpu0_ITLB PREFETCH  ACCESS:          0  HIT:          0  MISS:          0
cpu0_ITLB WRITEBACK ACCESS:          0  HIT:          0  MISS:          0
cpu0_ITLB TRANSLATION ACCESS:          0  HIT:          0  MISS:          0
cpu0_ITLB PREFETCH  REQUESTED:          0  ISSUED:          0  USEFUL:          0  USELESS:          0
cpu0_ITLB AVERAGE MISS LATENCY: 148.431 cycles
cpu0_L1I TOTAL     ACCESS:     192321  HIT:     190941  MISS:       1380
cpu0_L1I LOAD      ACCESS:     192321  HIT:     190941  MISS:       1380
cpu0_L1I RFO       ACCESS:          0  HIT:          0  MISS:          0
cpu0_L1I PREFETCH  ACCESS:          0  HIT:          0  MISS:          0
cpu0_L1I WRITEBACK ACCESS:          0  HIT:          0  MISS:          0
cpu0_L1I TRANSLATION ACCESS:          0  HIT:          0  MISS:          0
cpu0_L1I PREFETCH  REQUESTED:          0  ISSUED:          0  USEFUL:          0  USELESS:          0
cpu0_L1I AVERAGE MISS LATENCY: 204.577 cycles
cpu0_STLB TOTAL     ACCESS:     160067  HIT:      99172  MISS:      60895
cpu0_STLB LOAD      ACCESS:     151783  HIT:      92116  MISS:      59667
cpu0_STLB RFO       ACCESS:       8284  HIT:       7056  MISS:       1228
cpu0_STLB PREFETCH  ACCESS:          0  HIT:          0  MISS:          0
cpu0_STLB WRITEBACK ACCESS:          0  HIT:          0  MISS:          0
cpu0_STLB TRANSLATION ACCESS:          0  HIT:          0  MISS:          0
cpu0_STLB PREFETCH  REQUESTED:          0  ISSUED:          0  USEFUL:          0  USELESS:          0
cpu0_STLB AVERAGE MISS LATENCY: 9.93284 cycles
cpu0_L1D TOTAL     ACCESS:   12870798  HIT:   11121505  MISS:    1749293
cpu0_L1D LOAD      ACCESS:   10633854  HIT:    8999487  MISS:    1634367
cpu0_L1D RFO       ACCESS:    2178851  HIT:    2064718  MISS:     114133
cpu0_L1D PREFETCH  ACCESS:          0  HIT:          0  MISS:          0
cpu0_L1D WRITEBACK ACCESS:          0  HIT:          0  MISS:          0
cpu0_L1D TRANSLATION ACCESS:      58093  HIT:      57300  MISS:        793
cpu0_L1D PREFETCH  REQUESTED:          0  ISSUED:          0  USEFUL:          0  USELESS:          0
cpu0_L1D AVERAGE MISS LATENCY: 106.716 cycles
cpu0_L2C TOTAL     ACCESS:    1908262  HIT:     517684  MISS:    1390578
cpu0_L2C LOAD      ACCESS:    1635744  HIT:     346927  MISS:    1288817
cpu0_L2C RFO       ACCESS:     114129  HIT:      12986  MISS:     101143
cpu0_L2C PREFETCH  ACCESS:          0  HIT:          0  MISS:          0
cpu0_L2C WRITEBACK ACCESS:     157596  HIT:     157299  MISS:        297
cpu0_L2C TRANSLATION ACCESS:        793  HIT:        472  MISS:        321
cpu0_L2C PREFETCH  REQUESTED:          0  ISSUED:          0  USEFUL:          0  USELESS:          0
cpu0_L2C AVERAGE MISS LATENCY: 120.541 cycles
LLC TOTAL     ACCESS:    1524828  HIT:     807715  MISS:     717113
LLC LOAD      ACCESS:    1288817  HIT:     623172  MISS:     665645
LLC RFO       ACCESS:     101143  HIT:      75350  MISS:      25793
LLC PREFETCH  ACCESS:          0  HIT:          0  MISS:          0
LLC WRITEBACK ACCESS:     134547  HIT:     108882  MISS:      25665
LLC TRANSLATION ACCESS:        321  HIT:        311  MISS:         10
LLC PREFETCH  REQUESTED:          0  ISSUED:          0  USEFUL:          0  USELESS:          0
LLC AVERAGE MISS LATENCY: 192.9 cycles
Insertion Distribution: 
	LOAD 0 0 130578 653416 
	RFO 0 0 9213 22186 
	PREF 0 0 0 0 
	WRITEBACK 0 0 0 26070 
	 0 0 23 2 
Total Prefetch Downgrades: 0

DRAM Statistics
 CHANNEL 0
 RQ ROW_BUFFER_HIT:      70347  ROW_BUFFER_MISS:     620857
 DBUS AVG_CONGESTED_CYCLE:    3.80622
 WQ ROW_BUFFER_HIT:      10993  ROW_BUFFER_MISS:      24164  FULL:      21833


CPU 0 Branch Prediction Accuracy: 91.645% MPKI: 7.87682 Average ROB Occupancy at Mispredict: 153.671
Branch type MPKI
BRANCH_DIRECT_JUMP: 0.0017
BRANCH_INDIRECT: 0.00111
BRANCH_CONDITIONAL: 7.87013
BRANCH_DIRECT_CALL: 0.00166
BRANCH_INDIRECT_CALL: 0.0005
BRANCH_RETURN: 0.00172

