
*** ChampSim Multicore Out-of-Order Simulator ***

Warmup Instructions: 10000000
Simulation Instructions: 100000000
Number of CPUs: 1
Off-chip DRAM Size: 4 GiB Channels: 1 Width: 64-bit Data Rate: 3200 MT/s

VirtualMemory physical capacity: 8588881920 num_ppages: 2096895
VirtualMemory page size: 4096 log2_page_size: 12

CPU 0 runs /datasets/cs240c-wi22-a00-public/data/Assignment2/sphinx3_2520B.trace.xz
CPU 0 Bimodal branch predictor
Basic BTB sets: 1024 ways: 8 indirect buffer size: 4096 RAS size: 64
Initialize SRRIP state
Heartbeat CPU 0 instructions: 10000000 cycles: 2589701 heartbeat IPC: 3.86145 cumulative IPC: 3.86145 (Simulation time: 0 hr 0 min 25 sec) 

Warmup complete CPU 0 instructions: 10000004 cycles: 2589702 (Simulation time: 0 hr 0 min 25 sec) 

Heartbeat CPU 0 instructions: 20000002 cycles: 8888120 heartbeat IPC: 1.5877 cumulative IPC: 1.5877 (Simulation time: 0 hr 1 min 3 sec) 
Heartbeat CPU 0 instructions: 30000000 cycles: 14982178 heartbeat IPC: 1.64094 cumulative IPC: 1.61388 (Simulation time: 0 hr 1 min 40 sec) 
Heartbeat CPU 0 instructions: 40000002 cycles: 20569366 heartbeat IPC: 1.78981 cumulative IPC: 1.66855 (Simulation time: 0 hr 2 min 17 sec) 
Heartbeat CPU 0 instructions: 50000004 cycles: 26451542 heartbeat IPC: 1.70005 cumulative IPC: 1.67632 (Simulation time: 0 hr 2 min 55 sec) 
Heartbeat CPU 0 instructions: 60000001 cycles: 32139574 heartbeat IPC: 1.75808 cumulative IPC: 1.69205 (Simulation time: 0 hr 3 min 28 sec) 
Heartbeat CPU 0 instructions: 70000004 cycles: 37749629 heartbeat IPC: 1.78251 cumulative IPC: 1.70649 (Simulation time: 0 hr 4 min 1 sec) 
Heartbeat CPU 0 instructions: 80000000 cycles: 43374060 heartbeat IPC: 1.77796 cumulative IPC: 1.71634 (Simulation time: 0 hr 4 min 38 sec) 
Heartbeat CPU 0 instructions: 90000003 cycles: 49125433 heartbeat IPC: 1.73872 cumulative IPC: 1.71911 (Simulation time: 0 hr 5 min 13 sec) 
Heartbeat CPU 0 instructions: 100000002 cycles: 54989602 heartbeat IPC: 1.70527 cumulative IPC: 1.71756 (Simulation time: 0 hr 5 min 49 sec) 
Heartbeat CPU 0 instructions: 110000003 cycles: 63238442 heartbeat IPC: 1.21229 cumulative IPC: 1.64884 (Simulation time: 0 hr 6 min 31 sec) 
Finished CPU 0 instructions: 100000004 cycles: 60648741 cumulative IPC: 1.64884 (Simulation time: 0 hr 6 min 31 sec) 

ChampSim completed all CPUs

Region of Interest Statistics

CPU 0 cumulative IPC: 1.64884 instructions: 100000004 cycles: 60648741
cpu0_DTLB TOTAL     ACCESS:   15812406  HIT:   15756536  MISS:      55870
cpu0_DTLB LOAD      ACCESS:   14785155  HIT:   14732636  MISS:      52519
cpu0_DTLB RFO       ACCESS:    1027251  HIT:    1023900  MISS:       3351
cpu0_DTLB PREFETCH  ACCESS:          0  HIT:          0  MISS:          0
cpu0_DTLB WRITEBACK ACCESS:          0  HIT:          0  MISS:          0
cpu0_DTLB TRANSLATION ACCESS:          0  HIT:          0  MISS:          0
cpu0_DTLB PREFETCH  REQUESTED:          0  ISSUED:          0  USEFUL:          0  USELESS:          0
cpu0_DTLB AVERAGE MISS LATENCY: 11.3212 cycles
cpu0_ITLB TOTAL     ACCESS:    9644520  HIT:    9644478  MISS:         42
cpu0_ITLB LOAD      ACCESS:    9644520  HIT:    9644478  MISS:         42
cpu0_ITLB RFO       ACCESS:          0  HIT:          0  MISS:          0
cpu0_ITLB PREFETCH  ACCESS:          0  HIT:          0  MISS:          0
cpu0_ITLB WRITEBACK ACCESS:          0  HIT:          0  MISS:          0
cpu0_ITLB TRANSLATION ACCESS:          0  HIT:          0  MISS:          0
cpu0_ITLB PREFETCH  REQUESTED:          0  ISSUED:          0  USEFUL:          0  USELESS:          0
cpu0_ITLB AVERAGE MISS LATENCY: 135.929 cycles
cpu0_L1I TOTAL     ACCESS:     267780  HIT:     266488  MISS:       1292
cpu0_L1I LOAD      ACCESS:     267780  HIT:     266488  MISS:       1292
cpu0_L1I RFO       ACCESS:          0  HIT:          0  MISS:          0
cpu0_L1I PREFETCH  ACCESS:          0  HIT:          0  MISS:          0
cpu0_L1I WRITEBACK ACCESS:          0  HIT:          0  MISS:          0
cpu0_L1I TRANSLATION ACCESS:          0  HIT:          0  MISS:          0
cpu0_L1I PREFETCH  REQUESTED:          0  ISSUED:          0  USEFUL:          0  USELESS:          0
cpu0_L1I AVERAGE MISS LATENCY: 158.026 cycles
cpu0_STLB TOTAL     ACCESS:      55912  HIT:      51105  MISS:       4807
cpu0_STLB LOAD      ACCESS:      52561  HIT:      47886  MISS:       4675
cpu0_STLB RFO       ACCESS:       3351  HIT:       3219  MISS:        132
cpu0_STLB PREFETCH  ACCESS:          0  HIT:          0  MISS:          0
cpu0_STLB WRITEBACK ACCESS:          0  HIT:          0  MISS:          0
cpu0_STLB TRANSLATION ACCESS:          0  HIT:          0  MISS:          0
cpu0_STLB PREFETCH  REQUESTED:          0  ISSUED:          0  USEFUL:          0  USELESS:          0
cpu0_STLB AVERAGE MISS LATENCY: 27.5623 cycles
cpu0_L1D TOTAL     ACCESS:   11669885  HIT:   10330494  MISS:    1339391
cpu0_L1D LOAD      ACCESS:   10300133  HIT:    9086391  MISS:    1213742
cpu0_L1D RFO       ACCESS:    1365218  HIT:    1239683  MISS:     125535
cpu0_L1D PREFETCH  ACCESS:          0  HIT:          0  MISS:          0
cpu0_L1D WRITEBACK ACCESS:          0  HIT:          0  MISS:          0
cpu0_L1D TRANSLATION ACCESS:       4534  HIT:       4420  MISS:        114
cpu0_L1D PREFETCH  REQUESTED:          0  ISSUED:          0  USEFUL:          0  USELESS:          0
cpu0_L1D AVERAGE MISS LATENCY: 68.9106 cycles
cpu0_L2C TOTAL     ACCESS:    1472889  HIT:     251125  MISS:    1221764
cpu0_L2C LOAD      ACCESS:    1215033  HIT:     113625  MISS:    1101408
cpu0_L2C RFO       ACCESS:     125535  HIT:       5426  MISS:     120109
cpu0_L2C PREFETCH  ACCESS:          0  HIT:          0  MISS:          0
cpu0_L2C WRITEBACK ACCESS:     132207  HIT:     132045  MISS:        162
cpu0_L2C TRANSLATION ACCESS:        114  HIT:         29  MISS:         85
cpu0_L2C PREFETCH  REQUESTED:          0  ISSUED:          0  USEFUL:          0  USELESS:          0
cpu0_L2C AVERAGE MISS LATENCY: 63.6197 cycles
LLC TOTAL     ACCESS:    1348250  HIT:    1025230  MISS:     323020
LLC LOAD      ACCESS:    1101408  HIT:     784923  MISS:     316485
LLC RFO       ACCESS:     120109  HIT:     114539  MISS:       5570
LLC PREFETCH  ACCESS:          0  HIT:          0  MISS:          0
LLC WRITEBACK ACCESS:     126648  HIT:     125711  MISS:        937
LLC TRANSLATION ACCESS:         85  HIT:         57  MISS:         28
LLC PREFETCH  REQUESTED:          0  ISSUED:          0  USEFUL:          0  USELESS:          0
LLC AVERAGE MISS LATENCY: 161.205 cycles
Insertion Distribution: 
	LOAD 5103 0 111778 278348 
	RFO 1887 0 8407 5 
	PREF 0 0 0 0 
	WRITEBACK 0 0 0 976 
	 0 0 41 1 
Total Prefetch Downgrades: 0

DRAM Statistics
 CHANNEL 0
 RQ ROW_BUFFER_HIT:      84131  ROW_BUFFER_MISS:     237672
 DBUS AVG_CONGESTED_CYCLE:    3.77443
 WQ ROW_BUFFER_HIT:       3326  ROW_BUFFER_MISS:       3521  FULL:          0


CPU 0 Branch Prediction Accuracy: 93.1904% MPKI: 5.9173 Average ROB Occupancy at Mispredict: 194.265
Branch type MPKI
BRANCH_DIRECT_JUMP: 0.00106
BRANCH_INDIRECT: 0
BRANCH_CONDITIONAL: 5.91482
BRANCH_DIRECT_CALL: 0.00069
BRANCH_INDIRECT_CALL: 3e-05
BRANCH_RETURN: 0.0007

