
*** ChampSim Multicore Out-of-Order Simulator ***

Warmup Instructions: 10000000
Simulation Instructions: 100000000
Number of CPUs: 1
Off-chip DRAM Size: 4 GiB Channels: 1 Width: 64-bit Data Rate: 3200 MT/s

VirtualMemory physical capacity: 8588881920 num_ppages: 2096895
VirtualMemory page size: 4096 log2_page_size: 12

CPU 0 runs /datasets/cs240c-wi22-a00-public/data/Assignment2/leslie3d_1116B.trace.xz
CPU 0 Bimodal branch predictor
Basic BTB sets: 1024 ways: 8 indirect buffer size: 4096 RAS size: 64
Initialize SRRIP state
Heartbeat CPU 0 instructions: 10000000 cycles: 3692434 heartbeat IPC: 2.70824 cumulative IPC: 2.70824 (Simulation time: 0 hr 0 min 51 sec) 

Warmup complete CPU 0 instructions: 10000005 cycles: 3692435 (Simulation time: 0 hr 0 min 51 sec) 

Heartbeat CPU 0 instructions: 20000000 cycles: 14371793 heartbeat IPC: 0.936386 cumulative IPC: 0.936385 (Simulation time: 0 hr 2 min 24 sec) 
Heartbeat CPU 0 instructions: 30000004 cycles: 25970199 heartbeat IPC: 0.862188 cumulative IPC: 0.897756 (Simulation time: 0 hr 4 min 1 sec) 
Heartbeat CPU 0 instructions: 40000000 cycles: 39276389 heartbeat IPC: 0.75153 cumulative IPC: 0.843076 (Simulation time: 0 hr 5 min 49 sec) 
Heartbeat CPU 0 instructions: 50000000 cycles: 60475822 heartbeat IPC: 0.471711 cumulative IPC: 0.704431 (Simulation time: 0 hr 8 min 12 sec) 
Heartbeat CPU 0 instructions: 60000001 cycles: 112473292 heartbeat IPC: 0.192317 cumulative IPC: 0.45964 (Simulation time: 0 hr 13 min 8 sec) 
Heartbeat CPU 0 instructions: 70000000 cycles: 127915415 heartbeat IPC: 0.647579 cumulative IPC: 0.483002 (Simulation time: 0 hr 15 min 2 sec) 
Heartbeat CPU 0 instructions: 80000001 cycles: 141555591 heartbeat IPC: 0.733128 cumulative IPC: 0.50775 (Simulation time: 0 hr 16 min 54 sec) 
Heartbeat CPU 0 instructions: 90000004 cycles: 155414587 heartbeat IPC: 0.721553 cumulative IPC: 0.52728 (Simulation time: 0 hr 18 min 49 sec) 
Heartbeat CPU 0 instructions: 100000002 cycles: 169098617 heartbeat IPC: 0.730779 cumulative IPC: 0.544115 (Simulation time: 0 hr 20 min 45 sec) 
Heartbeat CPU 0 instructions: 110000001 cycles: 187843619 heartbeat IPC: 0.533475 cumulative IPC: 0.543032 (Simulation time: 0 hr 22 min 58 sec) 
Finished CPU 0 instructions: 100000001 cycles: 184151185 cumulative IPC: 0.543032 (Simulation time: 0 hr 22 min 58 sec) 

ChampSim completed all CPUs

Region of Interest Statistics

CPU 0 cumulative IPC: 0.543032 instructions: 100000001 cycles: 184151185
cpu0_DTLB TOTAL     ACCESS:   25777885  HIT:   25712147  MISS:      65738
cpu0_DTLB LOAD      ACCESS:   21143685  HIT:   21091992  MISS:      51693
cpu0_DTLB RFO       ACCESS:    4634200  HIT:    4620155  MISS:      14045
cpu0_DTLB PREFETCH  ACCESS:          0  HIT:          0  MISS:          0
cpu0_DTLB WRITEBACK ACCESS:          0  HIT:          0  MISS:          0
cpu0_DTLB TRANSLATION ACCESS:          0  HIT:          0  MISS:          0
cpu0_DTLB PREFETCH  REQUESTED:          0  ISSUED:          0  USEFUL:          0  USELESS:          0
cpu0_DTLB AVERAGE MISS LATENCY: 81.6401 cycles
cpu0_ITLB TOTAL     ACCESS:    2887676  HIT:    2887658  MISS:         18
cpu0_ITLB LOAD      ACCESS:    2887676  HIT:    2887658  MISS:         18
cpu0_ITLB RFO       ACCESS:          0  HIT:          0  MISS:          0
cpu0_ITLB PREFETCH  ACCESS:          0  HIT:          0  MISS:          0
cpu0_ITLB WRITEBACK ACCESS:          0  HIT:          0  MISS:          0
cpu0_ITLB TRANSLATION ACCESS:          0  HIT:          0  MISS:          0
cpu0_ITLB PREFETCH  REQUESTED:          0  ISSUED:          0  USEFUL:          0  USELESS:          0
cpu0_ITLB AVERAGE MISS LATENCY: 389.444 cycles
cpu0_L1I TOTAL     ACCESS:    1782163  HIT:    1781691  MISS:        472
cpu0_L1I LOAD      ACCESS:    1782163  HIT:    1781691  MISS:        472
cpu0_L1I RFO       ACCESS:          0  HIT:          0  MISS:          0
cpu0_L1I PREFETCH  ACCESS:          0  HIT:          0  MISS:          0
cpu0_L1I WRITEBACK ACCESS:          0  HIT:          0  MISS:          0
cpu0_L1I TRANSLATION ACCESS:          0  HIT:          0  MISS:          0
cpu0_L1I PREFETCH  REQUESTED:          0  ISSUED:          0  USEFUL:          0  USELESS:          0
cpu0_L1I AVERAGE MISS LATENCY: 382.375 cycles
cpu0_STLB TOTAL     ACCESS:      65756  HIT:      34132  MISS:      31624
cpu0_STLB LOAD      ACCESS:      51711  HIT:      28245  MISS:      23466
cpu0_STLB RFO       ACCESS:      14045  HIT:       5887  MISS:       8158
cpu0_STLB PREFETCH  ACCESS:          0  HIT:          0  MISS:          0
cpu0_STLB WRITEBACK ACCESS:          0  HIT:          0  MISS:          0
cpu0_STLB TRANSLATION ACCESS:          0  HIT:          0  MISS:          0
cpu0_STLB PREFETCH  REQUESTED:          0  ISSUED:          0  USEFUL:          0  USELESS:          0
cpu0_STLB AVERAGE MISS LATENCY: 151.201 cycles
cpu0_L1D TOTAL     ACCESS:   24390580  HIT:   20980545  MISS:    3410035
cpu0_L1D LOAD      ACCESS:   16239275  HIT:   13622170  MISS:    2617105
cpu0_L1D RFO       ACCESS:    8121926  HIT:    7332638  MISS:     789288
cpu0_L1D PREFETCH  ACCESS:          0  HIT:          0  MISS:          0
cpu0_L1D WRITEBACK ACCESS:          0  HIT:          0  MISS:          0
cpu0_L1D TRANSLATION ACCESS:      29379  HIT:      25737  MISS:       3642
cpu0_L1D PREFETCH  REQUESTED:          0  ISSUED:          0  USEFUL:          0  USELESS:          0
cpu0_L1D AVERAGE MISS LATENCY: 506.887 cycles
cpu0_L2C TOTAL     ACCESS:    4454901  HIT:    1718280  MISS:    2736621
cpu0_L2C LOAD      ACCESS:    2617530  HIT:     507667  MISS:    2109863
cpu0_L2C RFO       ACCESS:     789217  HIT:     162733  MISS:     626484
cpu0_L2C PREFETCH  ACCESS:          0  HIT:          0  MISS:          0
cpu0_L2C WRITEBACK ACCESS:    1044512  HIT:    1044336  MISS:        176
cpu0_L2C TRANSLATION ACCESS:       3642  HIT:       3544  MISS:         98
cpu0_L2C PREFETCH  REQUESTED:          0  ISSUED:          0  USEFUL:          0  USELESS:          0
cpu0_L2C AVERAGE MISS LATENCY: 617.947 cycles
LLC TOTAL     ACCESS:    3497162  HIT:     679360  MISS:    2817802
LLC LOAD      ACCESS:    2109863  HIT:     396195  MISS:    1713668
LLC RFO       ACCESS:     626484  HIT:     117660  MISS:     508824
LLC PREFETCH  ACCESS:          0  HIT:          0  MISS:          0
LLC WRITEBACK ACCESS:     760717  HIT:     165445  MISS:     595272
LLC TRANSLATION ACCESS:         98  HIT:         60  MISS:         38
LLC PREFETCH  REQUESTED:          0  ISSUED:          0  USEFUL:          0  USELESS:          0
LLC AVERAGE MISS LATENCY: 579.712 cycles
Insertion Distribution: 
	LOAD 0 0 398990 1428126 
	RFO 0 0 39811 495415 
	PREF 0 0 0 0 
	WRITEBACK 0 0 0 614819 
	 0 0 37 16 
Total Prefetch Downgrades: 0

DRAM Statistics
 CHANNEL 0
 RQ ROW_BUFFER_HIT:     224721  ROW_BUFFER_MISS:    1997690
 DBUS AVG_CONGESTED_CYCLE:    3.95793
 WQ ROW_BUFFER_HIT:      61907  ROW_BUFFER_MISS:     588471  FULL:      31109


CPU 0 Branch Prediction Accuracy: 96.8713% MPKI: 1.55303 Average ROB Occupancy at Mispredict: 299.55
Branch type MPKI
BRANCH_DIRECT_JUMP: 0.00018
BRANCH_INDIRECT: 0
BRANCH_CONDITIONAL: 1.55065
BRANCH_DIRECT_CALL: 0.00113
BRANCH_INDIRECT_CALL: 0
BRANCH_RETURN: 0.00107

