
*** ChampSim Multicore Out-of-Order Simulator ***

Warmup Instructions: 10000000
Simulation Instructions: 100000000
Number of CPUs: 1
Off-chip DRAM Size: 4 GiB Channels: 1 Width: 64-bit Data Rate: 3200 MT/s

VirtualMemory physical capacity: 8588881920 num_ppages: 2096895
VirtualMemory page size: 4096 log2_page_size: 12

CPU 0 runs /datasets/cs240c-wi22-a00-public/data/Assignment2/soplex_217B.trace.xz
CPU 0 Bimodal branch predictor
Basic BTB sets: 1024 ways: 8 indirect buffer size: 4096 RAS size: 64
Initialize SRRIP state
Heartbeat CPU 0 instructions: 10000000 cycles: 2844432 heartbeat IPC: 3.51564 cumulative IPC: 3.51564 (Simulation time: 0 hr 0 min 31 sec) 

Warmup complete CPU 0 instructions: 10000004 cycles: 2844433 (Simulation time: 0 hr 0 min 31 sec) 

Heartbeat CPU 0 instructions: 20000000 cycles: 34359989 heartbeat IPC: 0.317304 cumulative IPC: 0.317303 (Simulation time: 0 hr 2 min 18 sec) 
Heartbeat CPU 0 instructions: 30000004 cycles: 64633218 heartbeat IPC: 0.330325 cumulative IPC: 0.323683 (Simulation time: 0 hr 4 min 6 sec) 
Heartbeat CPU 0 instructions: 40000003 cycles: 95181425 heartbeat IPC: 0.327351 cumulative IPC: 0.324897 (Simulation time: 0 hr 5 min 48 sec) 
Heartbeat CPU 0 instructions: 50000000 cycles: 124014003 heartbeat IPC: 0.34683 cumulative IPC: 0.330116 (Simulation time: 0 hr 7 min 27 sec) 
Heartbeat CPU 0 instructions: 60000002 cycles: 154035604 heartbeat IPC: 0.333094 cumulative IPC: 0.330707 (Simulation time: 0 hr 9 min 11 sec) 
Heartbeat CPU 0 instructions: 70000000 cycles: 198482641 heartbeat IPC: 0.224987 cumulative IPC: 0.306689 (Simulation time: 0 hr 11 min 43 sec) 
Heartbeat CPU 0 instructions: 80000000 cycles: 231168288 heartbeat IPC: 0.305945 cumulative IPC: 0.306582 (Simulation time: 0 hr 13 min 18 sec) 
Heartbeat CPU 0 instructions: 90000002 cycles: 260281599 heartbeat IPC: 0.343486 cumulative IPC: 0.310755 (Simulation time: 0 hr 15 min 6 sec) 
Heartbeat CPU 0 instructions: 100000003 cycles: 291073284 heartbeat IPC: 0.324763 cumulative IPC: 0.312252 (Simulation time: 0 hr 16 min 56 sec) 
Heartbeat CPU 0 instructions: 110000000 cycles: 319417381 heartbeat IPC: 0.352807 cumulative IPC: 0.315883 (Simulation time: 0 hr 18 min 24 sec) 
Finished CPU 0 instructions: 100000000 cycles: 316572950 cumulative IPC: 0.315883 (Simulation time: 0 hr 18 min 24 sec) 

ChampSim completed all CPUs

Region of Interest Statistics

CPU 0 cumulative IPC: 0.315883 instructions: 100000000 cycles: 316572950
cpu0_DTLB TOTAL     ACCESS:   21882899  HIT:   21017658  MISS:     865241
cpu0_DTLB LOAD      ACCESS:   16718785  HIT:   16034273  MISS:     684512
cpu0_DTLB RFO       ACCESS:    5164114  HIT:    4983385  MISS:     180729
cpu0_DTLB PREFETCH  ACCESS:          0  HIT:          0  MISS:          0
cpu0_DTLB WRITEBACK ACCESS:          0  HIT:          0  MISS:          0
cpu0_DTLB TRANSLATION ACCESS:          0  HIT:          0  MISS:          0
cpu0_DTLB PREFETCH  REQUESTED:          0  ISSUED:          0  USEFUL:          0  USELESS:          0
cpu0_DTLB AVERAGE MISS LATENCY: 14.6994 cycles
cpu0_ITLB TOTAL     ACCESS:    8462951  HIT:    8462933  MISS:         18
cpu0_ITLB LOAD      ACCESS:    8462951  HIT:    8462933  MISS:         18
cpu0_ITLB RFO       ACCESS:          0  HIT:          0  MISS:          0
cpu0_ITLB PREFETCH  ACCESS:          0  HIT:          0  MISS:          0
cpu0_ITLB WRITEBACK ACCESS:          0  HIT:          0  MISS:          0
cpu0_ITLB TRANSLATION ACCESS:          0  HIT:          0  MISS:          0
cpu0_ITLB PREFETCH  REQUESTED:          0  ISSUED:          0  USEFUL:          0  USELESS:          0
cpu0_ITLB AVERAGE MISS LATENCY: 271.833 cycles
cpu0_L1I TOTAL     ACCESS:     355388  HIT:     354735  MISS:        653
cpu0_L1I LOAD      ACCESS:     355388  HIT:     354735  MISS:        653
cpu0_L1I RFO       ACCESS:          0  HIT:          0  MISS:          0
cpu0_L1I PREFETCH  ACCESS:          0  HIT:          0  MISS:          0
cpu0_L1I WRITEBACK ACCESS:          0  HIT:          0  MISS:          0
cpu0_L1I TRANSLATION ACCESS:          0  HIT:          0  MISS:          0
cpu0_L1I PREFETCH  REQUESTED:          0  ISSUED:          0  USEFUL:          0  USELESS:          0
cpu0_L1I AVERAGE MISS LATENCY: 309.769 cycles
cpu0_STLB TOTAL     ACCESS:     865259  HIT:     741745  MISS:     123514
cpu0_STLB LOAD      ACCESS:     684530  HIT:     570370  MISS:     114160
cpu0_STLB RFO       ACCESS:     180729  HIT:     171375  MISS:       9354
cpu0_STLB PREFETCH  ACCESS:          0  HIT:          0  MISS:          0
cpu0_STLB WRITEBACK ACCESS:          0  HIT:          0  MISS:          0
cpu0_STLB TRANSLATION ACCESS:          0  HIT:          0  MISS:          0
cpu0_STLB PREFETCH  REQUESTED:          0  ISSUED:          0  USEFUL:          0  USELESS:          0
cpu0_STLB AVERAGE MISS LATENCY: 38.7967 cycles
cpu0_L1D TOTAL     ACCESS:   18168798  HIT:   12344813  MISS:    5823985
cpu0_L1D LOAD      ACCESS:   12233121  HIT:    7238803  MISS:    4994318
cpu0_L1D RFO       ACCESS:    5815762  HIT:    4991113  MISS:     824649
cpu0_L1D PREFETCH  ACCESS:          0  HIT:          0  MISS:          0
cpu0_L1D WRITEBACK ACCESS:          0  HIT:          0  MISS:          0
cpu0_L1D TRANSLATION ACCESS:     119915  HIT:     114897  MISS:       5018
cpu0_L1D PREFETCH  REQUESTED:          0  ISSUED:          0  USEFUL:          0  USELESS:          0
cpu0_L1D AVERAGE MISS LATENCY: 195.439 cycles
cpu0_L2C TOTAL     ACCESS:    8411782  HIT:    3954476  MISS:    4457306
cpu0_L2C LOAD      ACCESS:    4994417  HIT:    1232074  MISS:    3762343
cpu0_L2C RFO       ACCESS:     824582  HIT:     130473  MISS:     694109
cpu0_L2C PREFETCH  ACCESS:          0  HIT:          0  MISS:          0
cpu0_L2C WRITEBACK ACCESS:    2587765  HIT:    2587662  MISS:        103
cpu0_L2C TRANSLATION ACCESS:       5018  HIT:       4267  MISS:        751
cpu0_L2C PREFETCH  REQUESTED:          0  ISSUED:          0  USEFUL:          0  USELESS:          0
cpu0_L2C AVERAGE MISS LATENCY: 240.796 cycles
LLC TOTAL     ACCESS:    6308149  HIT:    3166594  MISS:    3141555
LLC LOAD      ACCESS:    3762323  HIT:    1484642  MISS:    2277681
LLC RFO       ACCESS:     694106  HIT:     264897  MISS:     429209
LLC PREFETCH  ACCESS:          0  HIT:          0  MISS:          0
LLC WRITEBACK ACCESS:    1850969  HIT:    1416709  MISS:     434260
LLC TRANSLATION ACCESS:        751  HIT:        346  MISS:        405
LLC PREFETCH  REQUESTED:          0  ISSUED:          0  USEFUL:          0  USELESS:          0
LLC AVERAGE MISS LATENCY: 311.421 cycles
Insertion Distribution: 
	LOAD 341826 0 328845 1891268 
	RFO 112137 0 101382 262179 
	PREF 0 0 0 0 
	WRITEBACK 0 0 0 518137 
	 6 0 161 283 
Total Prefetch Downgrades: 0

DRAM Statistics
 CHANNEL 0
 RQ ROW_BUFFER_HIT:     306991  ROW_BUFFER_MISS:    2397680
 DBUS AVG_CONGESTED_CYCLE:    3.94581
 WQ ROW_BUFFER_HIT:      47861  ROW_BUFFER_MISS:     879858  FULL:     323348


CPU 0 Branch Prediction Accuracy: 93.2069% MPKI: 14.28 Average ROB Occupancy at Mispredict: 50.0216
Branch type MPKI
BRANCH_DIRECT_JUMP: 0.00099
BRANCH_INDIRECT: 0.00023
BRANCH_CONDITIONAL: 14.2767
BRANCH_DIRECT_CALL: 0.00062
BRANCH_INDIRECT_CALL: 0.00054
BRANCH_RETURN: 0.00093

