
*** ChampSim Multicore Out-of-Order Simulator ***

Warmup Instructions: 10000000
Simulation Instructions: 100000000
Number of CPUs: 1
Off-chip DRAM Size: 4 GiB Channels: 1 Width: 64-bit Data Rate: 3200 MT/s

VirtualMemory physical capacity: 8588881920 num_ppages: 2096895
VirtualMemory page size: 4096 log2_page_size: 12

CPU 0 runs /datasets/cs240c-wi22-a00-public/data/Assignment2/lbm_94B.trace.xz
CPU 0 Bimodal branch predictor
Basic BTB sets: 1024 ways: 8 indirect buffer size: 4096 RAS size: 64
Initialize SRRIP state
Heartbeat CPU 0 instructions: 10000001 cycles: 2544816 heartbeat IPC: 3.92956 cumulative IPC: 3.92956 (Simulation time: 0 hr 0 min 25 sec) 

Warmup complete CPU 0 instructions: 10000001 cycles: 2544816 (Simulation time: 0 hr 0 min 25 sec) 

Heartbeat CPU 0 instructions: 20000000 cycles: 40489502 heartbeat IPC: 0.263541 cumulative IPC: 0.263541 (Simulation time: 0 hr 2 min 54 sec) 
Heartbeat CPU 0 instructions: 30000004 cycles: 77191419 heartbeat IPC: 0.272465 cumulative IPC: 0.267929 (Simulation time: 0 hr 5 min 13 sec) 
Heartbeat CPU 0 instructions: 40000000 cycles: 113619389 heartbeat IPC: 0.274514 cumulative IPC: 0.270089 (Simulation time: 0 hr 7 min 34 sec) 
Heartbeat CPU 0 instructions: 50000001 cycles: 148970557 heartbeat IPC: 0.282876 cumulative IPC: 0.273176 (Simulation time: 0 hr 9 min 45 sec) 
Heartbeat CPU 0 instructions: 60000003 cycles: 183126774 heartbeat IPC: 0.292773 cumulative IPC: 0.276883 (Simulation time: 0 hr 11 min 59 sec) 
Heartbeat CPU 0 instructions: 70000001 cycles: 217048912 heartbeat IPC: 0.294793 cumulative IPC: 0.279715 (Simulation time: 0 hr 14 min 9 sec) 
Heartbeat CPU 0 instructions: 80000003 cycles: 250869226 heartbeat IPC: 0.29568 cumulative IPC: 0.281889 (Simulation time: 0 hr 16 min 18 sec) 
Heartbeat CPU 0 instructions: 90000002 cycles: 284529533 heartbeat IPC: 0.297086 cumulative IPC: 0.283703 (Simulation time: 0 hr 18 min 26 sec) 
Heartbeat CPU 0 instructions: 100000001 cycles: 318633398 heartbeat IPC: 0.293222 cumulative IPC: 0.28473 (Simulation time: 0 hr 20 min 33 sec) 
Heartbeat CPU 0 instructions: 110000003 cycles: 352917807 heartbeat IPC: 0.291678 cumulative IPC: 0.28541 (Simulation time: 0 hr 22 min 43 sec) 
Finished CPU 0 instructions: 100000002 cycles: 350372991 cumulative IPC: 0.28541 (Simulation time: 0 hr 22 min 43 sec) 

ChampSim completed all CPUs

Region of Interest Statistics

CPU 0 cumulative IPC: 0.28541 instructions: 100000002 cycles: 350372991
cpu0_DTLB TOTAL     ACCESS:   13214632  HIT:   13166880  MISS:      47752
cpu0_DTLB LOAD      ACCESS:    6740586  HIT:    6728638  MISS:      11948
cpu0_DTLB RFO       ACCESS:    6474046  HIT:    6438242  MISS:      35804
cpu0_DTLB PREFETCH  ACCESS:          0  HIT:          0  MISS:          0
cpu0_DTLB WRITEBACK ACCESS:          0  HIT:          0  MISS:          0
cpu0_DTLB TRANSLATION ACCESS:          0  HIT:          0  MISS:          0
cpu0_DTLB PREFETCH  REQUESTED:          0  ISSUED:          0  USEFUL:          0  USELESS:          0
cpu0_DTLB AVERAGE MISS LATENCY: 253.487 cycles
cpu0_ITLB TOTAL     ACCESS:     123189  HIT:     123189  MISS:          0
cpu0_ITLB LOAD      ACCESS:     123189  HIT:     123189  MISS:          0
cpu0_ITLB RFO       ACCESS:          0  HIT:          0  MISS:          0
cpu0_ITLB PREFETCH  ACCESS:          0  HIT:          0  MISS:          0
cpu0_ITLB WRITEBACK ACCESS:          0  HIT:          0  MISS:          0
cpu0_ITLB TRANSLATION ACCESS:          0  HIT:          0  MISS:          0
cpu0_ITLB PREFETCH  REQUESTED:          0  ISSUED:          0  USEFUL:          0  USELESS:          0
cpu0_ITLB AVERAGE MISS LATENCY: -nan cycles
cpu0_STLB TOTAL     ACCESS:      47752  HIT:          0  MISS:      47752
cpu0_STLB LOAD      ACCESS:      11948  HIT:          0  MISS:      11948
cpu0_STLB RFO       ACCESS:      35804  HIT:          0  MISS:      35804
cpu0_STLB PREFETCH  ACCESS:          0  HIT:          0  MISS:          0
cpu0_STLB WRITEBACK ACCESS:          0  HIT:          0  MISS:          0
cpu0_STLB TRANSLATION ACCESS:          0  HIT:          0  MISS:          0
cpu0_STLB PREFETCH  REQUESTED:          0  ISSUED:          0  USEFUL:          0  USELESS:          0
cpu0_STLB AVERAGE MISS LATENCY: 244.487 cycles
cpu0_L1D TOTAL     ACCESS:   14652947  HIT:    9614421  MISS:    5038526
cpu0_L1D LOAD      ACCESS:    4299477  HIT:    3536006  MISS:     763471
cpu0_L1D RFO       ACCESS:   10305718  HIT:    6030710  MISS:    4275008
cpu0_L1D PREFETCH  ACCESS:          0  HIT:          0  MISS:          0
cpu0_L1D WRITEBACK ACCESS:          0  HIT:          0  MISS:          0
cpu0_L1D TRANSLATION ACCESS:      47752  HIT:      47705  MISS:         47
cpu0_L1D PREFETCH  REQUESTED:          0  ISSUED:          0  USEFUL:          0  USELESS:          0
cpu0_L1D AVERAGE MISS LATENCY: 477.728 cycles
cpu0_L2C TOTAL     ACCESS:    9313533  HIT:    6258412  MISS:    3055121
cpu0_L2C LOAD      ACCESS:     763471  HIT:          1  MISS:     763470
cpu0_L2C RFO       ACCESS:    4275008  HIT:    1983500  MISS:    2291508
cpu0_L2C PREFETCH  ACCESS:          0  HIT:          0  MISS:          0
cpu0_L2C WRITEBACK ACCESS:    4275007  HIT:    4274911  MISS:         96
cpu0_L2C TRANSLATION ACCESS:         47  HIT:          0  MISS:         47
cpu0_L2C PREFETCH  REQUESTED:          0  ISSUED:          0  USEFUL:          0  USELESS:          0
cpu0_L2C AVERAGE MISS LATENCY: 768.258 cycles
LLC TOTAL     ACCESS:    5346807  HIT:    1069670  MISS:    4277137
LLC LOAD      ACCESS:     763470  HIT:         78  MISS:     763392
LLC RFO       ACCESS:    2291508  HIT:     263177  MISS:    2028331
LLC PREFETCH  ACCESS:          0  HIT:          0  MISS:          0
LLC WRITEBACK ACCESS:    2291782  HIT:     806411  MISS:    1485371
LLC TRANSLATION ACCESS:         47  HIT:          4  MISS:         43
LLC PREFETCH  REQUESTED:          0  ISSUED:          0  USEFUL:          0  USELESS:          0
LLC AVERAGE MISS LATENCY: 533.76 cycles
Insertion Distribution: 
	LOAD 0 0 18959 830231 
	RFO 131085 0 495861 1633620 
	PREF 0 0 0 0 
	WRITEBACK 0 0 0 1629077 
	 0 0 53 3 
Total Prefetch Downgrades: 0

DRAM Statistics
 CHANNEL 0
 RQ ROW_BUFFER_HIT:      57077  ROW_BUFFER_MISS:    2734367
 DBUS AVG_CONGESTED_CYCLE:    3.99628
 WQ ROW_BUFFER_HIT:      21436  ROW_BUFFER_MISS:    2007113  FULL:          0


CPU 0 Branch Prediction Accuracy: 99.132% MPKI: 0.10209 Average ROB Occupancy at Mispredict: 173.632
Branch type MPKI
BRANCH_DIRECT_JUMP: 0
BRANCH_INDIRECT: 0
BRANCH_CONDITIONAL: 0.10209
BRANCH_DIRECT_CALL: 0
BRANCH_INDIRECT_CALL: 0
BRANCH_RETURN: 0

