
*** ChampSim Multicore Out-of-Order Simulator ***

Warmup Instructions: 10000000
Simulation Instructions: 100000000
Number of CPUs: 1
Off-chip DRAM Size: 4 GiB Channels: 1 Width: 64-bit Data Rate: 3200 MT/s

VirtualMemory physical capacity: 8588881920 num_ppages: 2096895
VirtualMemory page size: 4096 log2_page_size: 12

CPU 0 runs /datasets/cs240c-wi22-a00-public/data/Assignment2/gcc_13B.trace.xz
CPU 0 Bimodal branch predictor
Basic BTB sets: 1024 ways: 8 indirect buffer size: 4096 RAS size: 64
Initialize SRRIP state
Heartbeat CPU 0 instructions: 10000003 cycles: 2971541 heartbeat IPC: 3.36526 cumulative IPC: 3.36526 (Simulation time: 0 hr 0 min 44 sec) 

Warmup complete CPU 0 instructions: 10000003 cycles: 2971541 (Simulation time: 0 hr 0 min 44 sec) 

Heartbeat CPU 0 instructions: 20000003 cycles: 49516714 heartbeat IPC: 0.214845 cumulative IPC: 0.214845 (Simulation time: 0 hr 2 min 50 sec) 
Heartbeat CPU 0 instructions: 30000002 cycles: 100562060 heartbeat IPC: 0.195904 cumulative IPC: 0.204938 (Simulation time: 0 hr 5 min 5 sec) 
Heartbeat CPU 0 instructions: 40000004 cycles: 135823943 heartbeat IPC: 0.283592 cumulative IPC: 0.225815 (Simulation time: 0 hr 7 min 7 sec) 
Heartbeat CPU 0 instructions: 50000002 cycles: 153912127 heartbeat IPC: 0.552847 cumulative IPC: 0.265005 (Simulation time: 0 hr 7 min 57 sec) 
Heartbeat CPU 0 instructions: 60000003 cycles: 171849738 heartbeat IPC: 0.557488 cumulative IPC: 0.296071 (Simulation time: 0 hr 8 min 46 sec) 
Heartbeat CPU 0 instructions: 70000000 cycles: 190408368 heartbeat IPC: 0.538833 cumulative IPC: 0.320108 (Simulation time: 0 hr 9 min 34 sec) 
Heartbeat CPU 0 instructions: 80000002 cycles: 208511021 heartbeat IPC: 0.552405 cumulative IPC: 0.340567 (Simulation time: 0 hr 10 min 20 sec) 
Heartbeat CPU 0 instructions: 90000000 cycles: 226585022 heartbeat IPC: 0.553281 cumulative IPC: 0.35776 (Simulation time: 0 hr 11 min 6 sec) 
Heartbeat CPU 0 instructions: 100000000 cycles: 244378130 heartbeat IPC: 0.562015 cumulative IPC: 0.372815 (Simulation time: 0 hr 11 min 55 sec) 
Heartbeat CPU 0 instructions: 110000002 cycles: 270057723 heartbeat IPC: 0.389414 cumulative IPC: 0.374411 (Simulation time: 0 hr 12 min 56 sec) 
Finished CPU 0 instructions: 100000004 cycles: 267086183 cumulative IPC: 0.374411 (Simulation time: 0 hr 12 min 56 sec) 

ChampSim completed all CPUs

Region of Interest Statistics

CPU 0 cumulative IPC: 0.374411 instructions: 100000004 cycles: 267086183
cpu0_DTLB TOTAL     ACCESS:   19455406  HIT:   19353223  MISS:     102183
cpu0_DTLB LOAD      ACCESS:   14019280  HIT:   13932181  MISS:      87099
cpu0_DTLB RFO       ACCESS:    5436126  HIT:    5421042  MISS:      15084
cpu0_DTLB PREFETCH  ACCESS:          0  HIT:          0  MISS:          0
cpu0_DTLB WRITEBACK ACCESS:          0  HIT:          0  MISS:          0
cpu0_DTLB TRANSLATION ACCESS:          0  HIT:          0  MISS:          0
cpu0_DTLB PREFETCH  REQUESTED:          0  ISSUED:          0  USEFUL:          0  USELESS:          0
cpu0_DTLB AVERAGE MISS LATENCY: 26.6118 cycles
cpu0_ITLB TOTAL     ACCESS:   10352635  HIT:   10352574  MISS:         61
cpu0_ITLB LOAD      ACCESS:   10352635  HIT:   10352574  MISS:         61
cpu0_ITLB RFO       ACCESS:          0  HIT:          0  MISS:          0
cpu0_ITLB PREFETCH  ACCESS:          0  HIT:          0  MISS:          0
cpu0_ITLB WRITEBACK ACCESS:          0  HIT:          0  MISS:          0
cpu0_ITLB TRANSLATION ACCESS:          0  HIT:          0  MISS:          0
cpu0_ITLB PREFETCH  REQUESTED:          0  ISSUED:          0  USEFUL:          0  USELESS:          0
cpu0_ITLB AVERAGE MISS LATENCY: 146.672 cycles
cpu0_L1I TOTAL     ACCESS:    6565305  HIT:    6564933  MISS:        372
cpu0_L1I LOAD      ACCESS:    6565305  HIT:    6564933  MISS:        372
cpu0_L1I RFO       ACCESS:          0  HIT:          0  MISS:          0
cpu0_L1I PREFETCH  ACCESS:          0  HIT:          0  MISS:          0
cpu0_L1I WRITEBACK ACCESS:          0  HIT:          0  MISS:          0
cpu0_L1I TRANSLATION ACCESS:          0  HIT:          0  MISS:          0
cpu0_L1I PREFETCH  REQUESTED:          0  ISSUED:          0  USEFUL:          0  USELESS:          0
cpu0_L1I AVERAGE MISS LATENCY: 172.492 cycles
cpu0_STLB TOTAL     ACCESS:     102244  HIT:      33344  MISS:      68900
cpu0_STLB LOAD      ACCESS:      87160  HIT:      30303  MISS:      56857
cpu0_STLB RFO       ACCESS:      15084  HIT:       3041  MISS:      12043
cpu0_STLB PREFETCH  ACCESS:          0  HIT:          0  MISS:          0
cpu0_STLB WRITEBACK ACCESS:          0  HIT:          0  MISS:          0
cpu0_STLB TRANSLATION ACCESS:          0  HIT:          0  MISS:          0
cpu0_STLB PREFETCH  REQUESTED:          0  ISSUED:          0  USEFUL:          0  USELESS:          0
cpu0_STLB AVERAGE MISS LATENCY: 26.2352 cycles
cpu0_L1D TOTAL     ACCESS:   26266705  HIT:   24722945  MISS:    1543760
cpu0_L1D LOAD      ACCESS:   12775486  HIT:   11508349  MISS:    1267137
cpu0_L1D RFO       ACCESS:   13422506  HIT:   13146955  MISS:     275551
cpu0_L1D PREFETCH  ACCESS:          0  HIT:          0  MISS:          0
cpu0_L1D WRITEBACK ACCESS:          0  HIT:          0  MISS:          0
cpu0_L1D TRANSLATION ACCESS:      68713  HIT:      67641  MISS:       1072
cpu0_L1D PREFETCH  REQUESTED:          0  ISSUED:          0  USEFUL:          0  USELESS:          0
cpu0_L1D AVERAGE MISS LATENCY: 254.361 cycles
cpu0_L2C TOTAL     ACCESS:    1957060  HIT:     462012  MISS:    1495048
cpu0_L2C LOAD      ACCESS:    1267509  HIT:      46454  MISS:    1221055
cpu0_L2C RFO       ACCESS:     275551  HIT:       1818  MISS:     273733
cpu0_L2C PREFETCH  ACCESS:          0  HIT:          0  MISS:          0
cpu0_L2C WRITEBACK ACCESS:     412928  HIT:     412877  MISS:         51
cpu0_L2C TRANSLATION ACCESS:       1072  HIT:        863  MISS:        209
cpu0_L2C PREFETCH  REQUESTED:          0  ISSUED:          0  USEFUL:          0  USELESS:          0
cpu0_L2C AVERAGE MISS LATENCY: 251.297 cycles
LLC TOTAL     ACCESS:    1905627  HIT:     243220  MISS:    1662407
LLC LOAD      ACCESS:    1221055  HIT:     117453  MISS:    1103602
LLC RFO       ACCESS:     273733  HIT:      37908  MISS:     235825
LLC PREFETCH  ACCESS:          0  HIT:          0  MISS:          0
LLC WRITEBACK ACCESS:     410630  HIT:      87690  MISS:     322940
LLC TRANSLATION ACCESS:        209  HIT:        169  MISS:         40
LLC PREFETCH  REQUESTED:          0  ISSUED:          0  USEFUL:          0  USELESS:          0
LLC AVERAGE MISS LATENCY: 207.077 cycles
Insertion Distribution: 
	LOAD 3002 0 116876 1253831 
	RFO 1610 0 56232 337715 
	PREF 0 0 0 0 
	WRITEBACK 0 0 0 495580 
	 0 0 30 38 
Total Prefetch Downgrades: 0

DRAM Statistics
 CHANNEL 0
 RQ ROW_BUFFER_HIT:     216954  ROW_BUFFER_MISS:    1122480
 DBUS AVG_CONGESTED_CYCLE:    3.91781
 WQ ROW_BUFFER_HIT:      45040  ROW_BUFFER_MISS:     310486  FULL:     171892


CPU 0 Branch Prediction Accuracy: 87.437% MPKI: 28.6507 Average ROB Occupancy at Mispredict: 19.8657
Branch type MPKI
BRANCH_DIRECT_JUMP: 0.0008
BRANCH_INDIRECT: 0.00403
BRANCH_CONDITIONAL: 28.6428
BRANCH_DIRECT_CALL: 0.00114
BRANCH_INDIRECT_CALL: 0.0008
BRANCH_RETURN: 0.00114

