
*** ChampSim Multicore Out-of-Order Simulator ***

Warmup Instructions: 10000000
Simulation Instructions: 100000000
Number of CPUs: 1
Off-chip DRAM Size: 4 GiB Channels: 1 Width: 64-bit Data Rate: 3200 MT/s

VirtualMemory physical capacity: 8588881920 num_ppages: 2096895
VirtualMemory page size: 4096 log2_page_size: 12

CPU 0 runs /datasets/cs240c-wi22-a00-public/data/Assignment2/soplex_205B.trace.xz
CPU 0 Bimodal branch predictor
Basic BTB sets: 1024 ways: 8 indirect buffer size: 4096 RAS size: 64
Initialize SRRIP state
Heartbeat CPU 0 instructions: 10000003 cycles: 2865144 heartbeat IPC: 3.49023 cumulative IPC: 3.49023 (Simulation time: 0 hr 0 min 36 sec) 

Warmup complete CPU 0 instructions: 10000003 cycles: 2865144 (Simulation time: 0 hr 0 min 36 sec) 

Heartbeat CPU 0 instructions: 20000004 cycles: 48086773 heartbeat IPC: 0.221133 cumulative IPC: 0.221133 (Simulation time: 0 hr 3 min 43 sec) 
Heartbeat CPU 0 instructions: 30000004 cycles: 84982982 heartbeat IPC: 0.271031 cumulative IPC: 0.243552 (Simulation time: 0 hr 5 min 22 sec) 
Heartbeat CPU 0 instructions: 40000004 cycles: 114580522 heartbeat IPC: 0.337866 cumulative IPC: 0.26854 (Simulation time: 0 hr 7 min 9 sec) 
Heartbeat CPU 0 instructions: 50000001 cycles: 145966560 heartbeat IPC: 0.318613 cumulative IPC: 0.279522 (Simulation time: 0 hr 8 min 56 sec) 
Heartbeat CPU 0 instructions: 60000000 cycles: 173415962 heartbeat IPC: 0.364307 cumulative IPC: 0.293168 (Simulation time: 0 hr 10 min 31 sec) 
Heartbeat CPU 0 instructions: 70000000 cycles: 202916380 heartbeat IPC: 0.338978 cumulative IPC: 0.299923 (Simulation time: 0 hr 12 min 22 sec) 
Heartbeat CPU 0 instructions: 80000003 cycles: 231887709 heartbeat IPC: 0.345169 cumulative IPC: 0.305647 (Simulation time: 0 hr 13 min 57 sec) 
Heartbeat CPU 0 instructions: 90000000 cycles: 262575958 heartbeat IPC: 0.325858 cumulative IPC: 0.308035 (Simulation time: 0 hr 15 min 47 sec) 
Heartbeat CPU 0 instructions: 100000002 cycles: 290032849 heartbeat IPC: 0.364207 cumulative IPC: 0.313406 (Simulation time: 0 hr 17 min 16 sec) 
Heartbeat CPU 0 instructions: 110000000 cycles: 341155386 heartbeat IPC: 0.195608 cumulative IPC: 0.295604 (Simulation time: 0 hr 19 min 59 sec) 
Finished CPU 0 instructions: 100000002 cycles: 338290243 cumulative IPC: 0.295604 (Simulation time: 0 hr 19 min 59 sec) 

ChampSim completed all CPUs

Region of Interest Statistics

CPU 0 cumulative IPC: 0.295604 instructions: 100000002 cycles: 338290243
cpu0_DTLB TOTAL     ACCESS:   22288391  HIT:   21325997  MISS:     962394
cpu0_DTLB LOAD      ACCESS:   16546443  HIT:   15804230  MISS:     742213
cpu0_DTLB RFO       ACCESS:    5741948  HIT:    5521767  MISS:     220181
cpu0_DTLB PREFETCH  ACCESS:          0  HIT:          0  MISS:          0
cpu0_DTLB WRITEBACK ACCESS:          0  HIT:          0  MISS:          0
cpu0_DTLB TRANSLATION ACCESS:          0  HIT:          0  MISS:          0
cpu0_DTLB PREFETCH  REQUESTED:          0  ISSUED:          0  USEFUL:          0  USELESS:          0
cpu0_DTLB AVERAGE MISS LATENCY: 15.8141 cycles
cpu0_ITLB TOTAL     ACCESS:    7924107  HIT:    7924090  MISS:         17
cpu0_ITLB LOAD      ACCESS:    7924107  HIT:    7924090  MISS:         17
cpu0_ITLB RFO       ACCESS:          0  HIT:          0  MISS:          0
cpu0_ITLB PREFETCH  ACCESS:          0  HIT:          0  MISS:          0
cpu0_ITLB WRITEBACK ACCESS:          0  HIT:          0  MISS:          0
cpu0_ITLB TRANSLATION ACCESS:          0  HIT:          0  MISS:          0
cpu0_ITLB PREFETCH  REQUESTED:          0  ISSUED:          0  USEFUL:          0  USELESS:          0
cpu0_ITLB AVERAGE MISS LATENCY: 346.706 cycles
cpu0_L1I TOTAL     ACCESS:     824817  HIT:     824044  MISS:        773
cpu0_L1I LOAD      ACCESS:     824817  HIT:     824044  MISS:        773
cpu0_L1I RFO       ACCESS:          0  HIT:          0  MISS:          0
cpu0_L1I PREFETCH  ACCESS:          0  HIT:          0  MISS:          0
cpu0_L1I WRITEBACK ACCESS:          0  HIT:          0  MISS:          0
cpu0_L1I TRANSLATION ACCESS:          0  HIT:          0  MISS:          0
cpu0_L1I PREFETCH  REQUESTED:          0  ISSUED:          0  USEFUL:          0  USELESS:          0
cpu0_L1I AVERAGE MISS LATENCY: 330.072 cycles
cpu0_STLB TOTAL     ACCESS:     962411  HIT:     806850  MISS:     155561
cpu0_STLB LOAD      ACCESS:     742230  HIT:     597499  MISS:     144731
cpu0_STLB RFO       ACCESS:     220181  HIT:     209351  MISS:      10830
cpu0_STLB PREFETCH  ACCESS:          0  HIT:          0  MISS:          0
cpu0_STLB WRITEBACK ACCESS:          0  HIT:          0  MISS:          0
cpu0_STLB TRANSLATION ACCESS:          0  HIT:          0  MISS:          0
cpu0_STLB PREFETCH  REQUESTED:          0  ISSUED:          0  USEFUL:          0  USELESS:          0
cpu0_STLB AVERAGE MISS LATENCY: 41.2636 cycles
cpu0_L1D TOTAL     ACCESS:   19194950  HIT:   13404456  MISS:    5790494
cpu0_L1D LOAD      ACCESS:   12661452  HIT:    7826952  MISS:    4834500
cpu0_L1D RFO       ACCESS:    6381851  HIT:    5431492  MISS:     950359
cpu0_L1D PREFETCH  ACCESS:          0  HIT:          0  MISS:          0
cpu0_L1D WRITEBACK ACCESS:          0  HIT:          0  MISS:          0
cpu0_L1D TRANSLATION ACCESS:     151647  HIT:     146012  MISS:       5635
cpu0_L1D PREFETCH  REQUESTED:          0  ISSUED:          0  USEFUL:          0  USELESS:          0
cpu0_L1D AVERAGE MISS LATENCY: 236.144 cycles
cpu0_L2C TOTAL     ACCESS:    8360731  HIT:    3854743  MISS:    4505988
cpu0_L2C LOAD      ACCESS:    4834878  HIT:    1131136  MISS:    3703742
cpu0_L2C RFO       ACCESS:     950287  HIT:     148938  MISS:     801349
cpu0_L2C PREFETCH  ACCESS:          0  HIT:          0  MISS:          0
cpu0_L2C WRITEBACK ACCESS:    2569931  HIT:    2569858  MISS:         73
cpu0_L2C TRANSLATION ACCESS:       5635  HIT:       4811  MISS:        824
cpu0_L2C PREFETCH  REQUESTED:          0  ISSUED:          0  USEFUL:          0  USELESS:          0
cpu0_L2C AVERAGE MISS LATENCY: 289.165 cycles
LLC TOTAL     ACCESS:    6406209  HIT:    2863775  MISS:    3542434
LLC LOAD      ACCESS:    3703711  HIT:    1340401  MISS:    2363310
LLC RFO       ACCESS:     801337  HIT:     278561  MISS:     522776
LLC PREFETCH  ACCESS:          0  HIT:          0  MISS:          0
LLC WRITEBACK ACCESS:    1900337  HIT:    1244273  MISS:     656064
LLC TRANSLATION ACCESS:        824  HIT:        540  MISS:        284
LLC PREFETCH  REQUESTED:          0  ISSUED:          0  USEFUL:          0  USELESS:          0
LLC AVERAGE MISS LATENCY: 340.704 cycles
Insertion Distribution: 
	LOAD 39841 0 704079 1921059 
	RFO 12379 0 252560 298744 
	PREF 0 0 0 0 
	WRITEBACK 0 0 0 713259 
	 0 0 148 181 
Total Prefetch Downgrades: 0

DRAM Statistics
 CHANNEL 0
 RQ ROW_BUFFER_HIT:     377825  ROW_BUFFER_MISS:    2506741
 DBUS AVG_CONGESTED_CYCLE:    3.95878
 WQ ROW_BUFFER_HIT:      53032  ROW_BUFFER_MISS:    1044887  FULL:     550171


CPU 0 Branch Prediction Accuracy: 93.3985% MPKI: 13.5305 Average ROB Occupancy at Mispredict: 49.2597
Branch type MPKI
BRANCH_DIRECT_JUMP: 0.00081
BRANCH_INDIRECT: 0.00022
BRANCH_CONDITIONAL: 13.5274
BRANCH_DIRECT_CALL: 0.00058
BRANCH_INDIRECT_CALL: 0.00056
BRANCH_RETURN: 0.00094

