
*** ChampSim Multicore Out-of-Order Simulator ***

Warmup Instructions: 10000000
Simulation Instructions: 100000000
Number of CPUs: 1
Off-chip DRAM Size: 4 GiB Channels: 1 Width: 64-bit Data Rate: 3200 MT/s

VirtualMemory physical capacity: 8588881920 num_ppages: 2096895
VirtualMemory page size: 4096 log2_page_size: 12

CPU 0 runs /datasets/cs240c-wi22-a00-public/data/Assignment2/soplex_66B.trace.xz
CPU 0 Bimodal branch predictor
Basic BTB sets: 1024 ways: 8 indirect buffer size: 4096 RAS size: 64
Initialize SRRIP state
Heartbeat CPU 0 instructions: 10000001 cycles: 2688390 heartbeat IPC: 3.7197 cumulative IPC: 3.7197 (Simulation time: 0 hr 0 min 31 sec) 

Warmup complete CPU 0 instructions: 10000001 cycles: 2688390 (Simulation time: 0 hr 0 min 31 sec) 

Heartbeat CPU 0 instructions: 20000003 cycles: 27356642 heartbeat IPC: 0.405379 cumulative IPC: 0.405379 (Simulation time: 0 hr 1 min 51 sec) 
Heartbeat CPU 0 instructions: 30000001 cycles: 51448041 heartbeat IPC: 0.415086 cumulative IPC: 0.410175 (Simulation time: 0 hr 3 min 12 sec) 
Heartbeat CPU 0 instructions: 40000002 cycles: 75536883 heartbeat IPC: 0.41513 cumulative IPC: 0.411814 (Simulation time: 0 hr 4 min 30 sec) 
Heartbeat CPU 0 instructions: 50000002 cycles: 108703763 heartbeat IPC: 0.301506 cumulative IPC: 0.377304 (Simulation time: 0 hr 6 min 32 sec) 
Heartbeat CPU 0 instructions: 60000002 cycles: 143545187 heartbeat IPC: 0.287015 cumulative IPC: 0.35497 (Simulation time: 0 hr 8 min 37 sec) 
Heartbeat CPU 0 instructions: 70000001 cycles: 171225446 heartbeat IPC: 0.361268 cumulative IPC: 0.356005 (Simulation time: 0 hr 10 min 11 sec) 
Heartbeat CPU 0 instructions: 80000001 cycles: 198850309 heartbeat IPC: 0.361993 cumulative IPC: 0.356848 (Simulation time: 0 hr 11 min 47 sec) 
Heartbeat CPU 0 instructions: 90000003 cycles: 223259465 heartbeat IPC: 0.409682 cumulative IPC: 0.362695 (Simulation time: 0 hr 13 min 5 sec) 
Heartbeat CPU 0 instructions: 100000000 cycles: 246801314 heartbeat IPC: 0.424775 cumulative IPC: 0.368682 (Simulation time: 0 hr 14 min 20 sec) 
Heartbeat CPU 0 instructions: 110000000 cycles: 270671950 heartbeat IPC: 0.418925 cumulative IPC: 0.373157 (Simulation time: 0 hr 15 min 37 sec) 
Finished CPU 0 instructions: 100000004 cycles: 267983561 cumulative IPC: 0.373157 (Simulation time: 0 hr 15 min 37 sec) 

ChampSim completed all CPUs

Region of Interest Statistics

CPU 0 cumulative IPC: 0.373157 instructions: 100000004 cycles: 267983561
cpu0_DTLB TOTAL     ACCESS:   19893103  HIT:   19315598  MISS:     577505
cpu0_DTLB LOAD      ACCESS:   14822322  HIT:   14365057  MISS:     457265
cpu0_DTLB RFO       ACCESS:    5070781  HIT:    4950541  MISS:     120240
cpu0_DTLB PREFETCH  ACCESS:          0  HIT:          0  MISS:          0
cpu0_DTLB WRITEBACK ACCESS:          0  HIT:          0  MISS:          0
cpu0_DTLB TRANSLATION ACCESS:          0  HIT:          0  MISS:          0
cpu0_DTLB PREFETCH  REQUESTED:          0  ISSUED:          0  USEFUL:          0  USELESS:          0
cpu0_DTLB AVERAGE MISS LATENCY: 16.7343 cycles
cpu0_ITLB TOTAL     ACCESS:    8247291  HIT:    8247273  MISS:         18
cpu0_ITLB LOAD      ACCESS:    8247291  HIT:    8247273  MISS:         18
cpu0_ITLB RFO       ACCESS:          0  HIT:          0  MISS:          0
cpu0_ITLB PREFETCH  ACCESS:          0  HIT:          0  MISS:          0
cpu0_ITLB WRITEBACK ACCESS:          0  HIT:          0  MISS:          0
cpu0_ITLB TRANSLATION ACCESS:          0  HIT:          0  MISS:          0
cpu0_ITLB PREFETCH  REQUESTED:          0  ISSUED:          0  USEFUL:          0  USELESS:          0
cpu0_ITLB AVERAGE MISS LATENCY: 346.611 cycles
cpu0_L1I TOTAL     ACCESS:    1901291  HIT:    1900430  MISS:        861
cpu0_L1I LOAD      ACCESS:    1901291  HIT:    1900430  MISS:        861
cpu0_L1I RFO       ACCESS:          0  HIT:          0  MISS:          0
cpu0_L1I PREFETCH  ACCESS:          0  HIT:          0  MISS:          0
cpu0_L1I WRITEBACK ACCESS:          0  HIT:          0  MISS:          0
cpu0_L1I TRANSLATION ACCESS:          0  HIT:          0  MISS:          0
cpu0_L1I PREFETCH  REQUESTED:          0  ISSUED:          0  USEFUL:          0  USELESS:          0
cpu0_L1I AVERAGE MISS LATENCY: 324.429 cycles
cpu0_STLB TOTAL     ACCESS:     577523  HIT:     474603  MISS:     102920
cpu0_STLB LOAD      ACCESS:     457283  HIT:     362197  MISS:      95086
cpu0_STLB RFO       ACCESS:     120240  HIT:     112406  MISS:       7834
cpu0_STLB PREFETCH  ACCESS:          0  HIT:          0  MISS:          0
cpu0_STLB WRITEBACK ACCESS:          0  HIT:          0  MISS:          0
cpu0_STLB TRANSLATION ACCESS:          0  HIT:          0  MISS:          0
cpu0_STLB PREFETCH  REQUESTED:          0  ISSUED:          0  USEFUL:          0  USELESS:          0
cpu0_STLB AVERAGE MISS LATENCY: 42.8654 cycles
cpu0_L1D TOTAL     ACCESS:   17098387  HIT:   12781368  MISS:    4317019
cpu0_L1D LOAD      ACCESS:   11098701  HIT:    7500374  MISS:    3598327
cpu0_L1D RFO       ACCESS:    5899642  HIT:    5183589  MISS:     716053
cpu0_L1D PREFETCH  ACCESS:          0  HIT:          0  MISS:          0
cpu0_L1D WRITEBACK ACCESS:          0  HIT:          0  MISS:          0
cpu0_L1D TRANSLATION ACCESS:     100044  HIT:      97405  MISS:       2639
cpu0_L1D PREFETCH  REQUESTED:          0  ISSUED:          0  USEFUL:          0  USELESS:          0
cpu0_L1D AVERAGE MISS LATENCY: 214.639 cycles
cpu0_L2C TOTAL     ACCESS:    6105329  HIT:    2607968  MISS:    3497361
cpu0_L2C LOAD      ACCESS:    3599059  HIT:     717327  MISS:    2881732
cpu0_L2C RFO       ACCESS:     715988  HIT:     101625  MISS:     614363
cpu0_L2C PREFETCH  ACCESS:          0  HIT:          0  MISS:          0
cpu0_L2C WRITEBACK ACCESS:    1787643  HIT:    1787103  MISS:        540
cpu0_L2C TRANSLATION ACCESS:       2639  HIT:       1913  MISS:        726
cpu0_L2C PREFETCH  REQUESTED:          0  ISSUED:          0  USEFUL:          0  USELESS:          0
cpu0_L2C AVERAGE MISS LATENCY: 251.252 cycles
LLC TOTAL     ACCESS:    4876972  HIT:    2308746  MISS:    2568226
LLC LOAD      ACCESS:    2881721  HIT:    1195491  MISS:    1686230
LLC RFO       ACCESS:     614363  HIT:     242766  MISS:     371597
LLC PREFETCH  ACCESS:          0  HIT:          0  MISS:          0
LLC WRITEBACK ACCESS:    1380162  HIT:     869890  MISS:     510272
LLC TRANSLATION ACCESS:        726  HIT:        599  MISS:        127
LLC PREFETCH  REQUESTED:          0  ISSUED:          0  USEFUL:          0  USELESS:          0
LLC AVERAGE MISS LATENCY: 312.585 cycles
Insertion Distribution: 
	LOAD 19904 0 396457 1464285 
	RFO 5886 0 155018 263664 
	PREF 0 0 0 0 
	WRITEBACK 0 0 0 548751 
	 0 0 114 50 
Total Prefetch Downgrades: 0

DRAM Statistics
 CHANNEL 0
 RQ ROW_BUFFER_HIT:     382543  ROW_BUFFER_MISS:    1673944
 DBUS AVG_CONGESTED_CYCLE:    3.94731
 WQ ROW_BUFFER_HIT:      62180  ROW_BUFFER_MISS:     698392  FULL:     699429


CPU 0 Branch Prediction Accuracy: 91.9788% MPKI: 17.5693 Average ROB Occupancy at Mispredict: 27.6545
Branch type MPKI
BRANCH_DIRECT_JUMP: 0.00093
BRANCH_INDIRECT: 0.00028
BRANCH_CONDITIONAL: 17.5659
BRANCH_DIRECT_CALL: 0.00064
BRANCH_INDIRECT_CALL: 0.00043
BRANCH_RETURN: 0.00108

