
*** ChampSim Multicore Out-of-Order Simulator ***

Warmup Instructions: 10000000
Simulation Instructions: 100000000
Number of CPUs: 1
Off-chip DRAM Size: 4 GiB Channels: 1 Width: 64-bit Data Rate: 3200 MT/s

VirtualMemory physical capacity: 8588881920 num_ppages: 2096895
VirtualMemory page size: 4096 log2_page_size: 12

CPU 0 runs /datasets/cs240c-wi22-a00-public/data/Assignment2/bzip2_259B.trace.xz
CPU 0 Bimodal branch predictor
Basic BTB sets: 1024 ways: 8 indirect buffer size: 4096 RAS size: 64
Initialize SRRIP state
Heartbeat CPU 0 instructions: 10000002 cycles: 2535454 heartbeat IPC: 3.94407 cumulative IPC: 3.94407 (Simulation time: 0 hr 0 min 30 sec) 

Warmup complete CPU 0 instructions: 10000002 cycles: 2535454 (Simulation time: 0 hr 0 min 30 sec) 

Heartbeat CPU 0 instructions: 20000004 cycles: 8956693 heartbeat IPC: 1.55733 cumulative IPC: 1.55733 (Simulation time: 0 hr 1 min 36 sec) 
Heartbeat CPU 0 instructions: 30000002 cycles: 14387350 heartbeat IPC: 1.8414 cumulative IPC: 1.68749 (Simulation time: 0 hr 2 min 32 sec) 
Heartbeat CPU 0 instructions: 40000003 cycles: 21103071 heartbeat IPC: 1.48904 cumulative IPC: 1.61572 (Simulation time: 0 hr 3 min 18 sec) 
Heartbeat CPU 0 instructions: 50000003 cycles: 29301036 heartbeat IPC: 1.21981 cumulative IPC: 1.49446 (Simulation time: 0 hr 3 min 49 sec) 
Heartbeat CPU 0 instructions: 60000001 cycles: 37156538 heartbeat IPC: 1.27299 cumulative IPC: 1.44421 (Simulation time: 0 hr 4 min 20 sec) 
Heartbeat CPU 0 instructions: 70000004 cycles: 42423228 heartbeat IPC: 1.89873 cumulative IPC: 1.50422 (Simulation time: 0 hr 5 min 14 sec) 
Heartbeat CPU 0 instructions: 80000004 cycles: 49037485 heartbeat IPC: 1.51189 cumulative IPC: 1.50531 (Simulation time: 0 hr 6 min 15 sec) 
Heartbeat CPU 0 instructions: 90000001 cycles: 55401542 heartbeat IPC: 1.57132 cumulative IPC: 1.51326 (Simulation time: 0 hr 7 min 6 sec) 
Heartbeat CPU 0 instructions: 100000000 cycles: 63801219 heartbeat IPC: 1.19052 cumulative IPC: 1.46901 (Simulation time: 0 hr 7 min 38 sec) 
Heartbeat CPU 0 instructions: 110000000 cycles: 71776262 heartbeat IPC: 1.25391 cumulative IPC: 1.44423 (Simulation time: 0 hr 8 min 9 sec) 
Finished CPU 0 instructions: 100000003 cycles: 69240813 cumulative IPC: 1.44423 (Simulation time: 0 hr 8 min 9 sec) 

ChampSim completed all CPUs

Region of Interest Statistics

CPU 0 cumulative IPC: 1.44423 instructions: 100000003 cycles: 69240813
cpu0_DTLB TOTAL     ACCESS:   18629579  HIT:   17968541  MISS:     661038
cpu0_DTLB LOAD      ACCESS:    9571882  HIT:    8914768  MISS:     657114
cpu0_DTLB RFO       ACCESS:    9057697  HIT:    9053773  MISS:       3924
cpu0_DTLB PREFETCH  ACCESS:          0  HIT:          0  MISS:          0
cpu0_DTLB WRITEBACK ACCESS:          0  HIT:          0  MISS:          0
cpu0_DTLB TRANSLATION ACCESS:          0  HIT:          0  MISS:          0
cpu0_DTLB PREFETCH  REQUESTED:          0  ISSUED:          0  USEFUL:          0  USELESS:          0
cpu0_DTLB AVERAGE MISS LATENCY: 9.26375 cycles
cpu0_ITLB TOTAL     ACCESS:    6786293  HIT:    6786290  MISS:          3
cpu0_ITLB LOAD      ACCESS:    6786293  HIT:    6786290  MISS:          3
cpu0_ITLB RFO       ACCESS:          0  HIT:          0  MISS:          0
cpu0_ITLB PREFETCH  ACCESS:          0  HIT:          0  MISS:          0
cpu0_ITLB WRITEBACK ACCESS:          0  HIT:          0  MISS:          0
cpu0_ITLB TRANSLATION ACCESS:          0  HIT:          0  MISS:          0
cpu0_ITLB PREFETCH  REQUESTED:          0  ISSUED:          0  USEFUL:          0  USELESS:          0
cpu0_ITLB AVERAGE MISS LATENCY: 392.333 cycles
cpu0_L1I TOTAL     ACCESS:      58631  HIT:      58492  MISS:        139
cpu0_L1I LOAD      ACCESS:      58631  HIT:      58492  MISS:        139
cpu0_L1I RFO       ACCESS:          0  HIT:          0  MISS:          0
cpu0_L1I PREFETCH  ACCESS:          0  HIT:          0  MISS:          0
cpu0_L1I WRITEBACK ACCESS:          0  HIT:          0  MISS:          0
cpu0_L1I TRANSLATION ACCESS:          0  HIT:          0  MISS:          0
cpu0_L1I PREFETCH  REQUESTED:          0  ISSUED:          0  USEFUL:          0  USELESS:          0
cpu0_L1I AVERAGE MISS LATENCY: 212.827 cycles
cpu0_STLB TOTAL     ACCESS:     661041  HIT:     660221  MISS:        820
cpu0_STLB LOAD      ACCESS:     657117  HIT:     656844  MISS:        273
cpu0_STLB RFO       ACCESS:       3924  HIT:       3377  MISS:        547
cpu0_STLB PREFETCH  ACCESS:          0  HIT:          0  MISS:          0
cpu0_STLB WRITEBACK ACCESS:          0  HIT:          0  MISS:          0
cpu0_STLB TRANSLATION ACCESS:          0  HIT:          0  MISS:          0
cpu0_STLB PREFETCH  REQUESTED:          0  ISSUED:          0  USEFUL:          0  USELESS:          0
cpu0_STLB AVERAGE MISS LATENCY: 213.951 cycles
cpu0_L1D TOTAL     ACCESS:   20332329  HIT:   19326776  MISS:    1005553
cpu0_L1D LOAD      ACCESS:   10373818  HIT:    9487458  MISS:     886360
cpu0_L1D RFO       ACCESS:    9957693  HIT:    9838819  MISS:     118874
cpu0_L1D PREFETCH  ACCESS:          0  HIT:          0  MISS:          0
cpu0_L1D WRITEBACK ACCESS:          0  HIT:          0  MISS:          0
cpu0_L1D TRANSLATION ACCESS:        818  HIT:        499  MISS:        319
cpu0_L1D PREFETCH  REQUESTED:          0  ISSUED:          0  USEFUL:          0  USELESS:          0
cpu0_L1D AVERAGE MISS LATENCY: 78.5792 cycles
cpu0_L2C TOTAL     ACCESS:    1222684  HIT:     525064  MISS:     697620
cpu0_L2C LOAD      ACCESS:     886498  HIT:     288907  MISS:     597591
cpu0_L2C RFO       ACCESS:     118874  HIT:      18899  MISS:      99975
cpu0_L2C PREFETCH  ACCESS:          0  HIT:          0  MISS:          0
cpu0_L2C WRITEBACK ACCESS:     216993  HIT:     216957  MISS:         36
cpu0_L2C TRANSLATION ACCESS:        319  HIT:        301  MISS:         18
cpu0_L2C PREFETCH  REQUESTED:          0  ISSUED:          0  USEFUL:          0  USELESS:          0
cpu0_L2C AVERAGE MISS LATENCY: 97.444 cycles
LLC TOTAL     ACCESS:     886583  HIT:     582930  MISS:     303653
LLC LOAD      ACCESS:     597591  HIT:     401834  MISS:     195757
LLC RFO       ACCESS:      99975  HIT:      48411  MISS:      51564
LLC PREFETCH  ACCESS:          0  HIT:          0  MISS:          0
LLC WRITEBACK ACCESS:     188999  HIT:     132684  MISS:      56315
LLC TRANSLATION ACCESS:         18  HIT:          1  MISS:         17
LLC PREFETCH  REQUESTED:          0  ISSUED:          0  USEFUL:          0  USELESS:          0
LLC AVERAGE MISS LATENCY: 175.623 cycles
Insertion Distribution: 
	LOAD 0 0 46108 150231 
	RFO 0 0 23926 43596 
	PREF 0 0 0 0 
	WRITEBACK 0 0 0 56315 
	 0 0 16 12 
Total Prefetch Downgrades: 0

DRAM Statistics
 CHANNEL 0
 RQ ROW_BUFFER_HIT:      33853  ROW_BUFFER_MISS:     213335
 DBUS AVG_CONGESTED_CYCLE:    3.93069
 WQ ROW_BUFFER_HIT:      16660  ROW_BUFFER_MISS:      77275  FULL:        937


CPU 0 Branch Prediction Accuracy: 93.3658% MPKI: 11.2167 Average ROB Occupancy at Mispredict: 31.7309
Branch type MPKI
BRANCH_DIRECT_JUMP: 0.0006
BRANCH_INDIRECT: 0.01713
BRANCH_CONDITIONAL: 11.1989
BRANCH_DIRECT_CALL: 5e-05
BRANCH_INDIRECT_CALL: 0
BRANCH_RETURN: 6e-05

