
*** ChampSim Multicore Out-of-Order Simulator ***

Warmup Instructions: 10000000
Simulation Instructions: 100000000
Number of CPUs: 1
Off-chip DRAM Size: 4 GiB Channels: 1 Width: 64-bit Data Rate: 3200 MT/s

VirtualMemory physical capacity: 8588881920 num_ppages: 2096895
VirtualMemory page size: 4096 log2_page_size: 12

CPU 0 runs /datasets/cs240c-wi22-a00-public/data/Assignment2/calculix_2655B.trace.xz
CPU 0 Bimodal branch predictor
Basic BTB sets: 1024 ways: 8 indirect buffer size: 4096 RAS size: 64
Initialize SRRIP state
Heartbeat CPU 0 instructions: 10000003 cycles: 2503575 heartbeat IPC: 3.99429 cumulative IPC: 3.99429 (Simulation time: 0 hr 0 min 21 sec) 

Warmup complete CPU 0 instructions: 10000003 cycles: 2503575 (Simulation time: 0 hr 0 min 21 sec) 

Heartbeat CPU 0 instructions: 20000002 cycles: 5972558 heartbeat IPC: 2.88269 cumulative IPC: 2.88269 (Simulation time: 0 hr 0 min 47 sec) 
Heartbeat CPU 0 instructions: 30000004 cycles: 9731559 heartbeat IPC: 2.66028 cumulative IPC: 2.76702 (Simulation time: 0 hr 1 min 14 sec) 
Heartbeat CPU 0 instructions: 40000004 cycles: 13382405 heartbeat IPC: 2.73909 cumulative IPC: 2.75765 (Simulation time: 0 hr 1 min 40 sec) 
Heartbeat CPU 0 instructions: 50000001 cycles: 17170226 heartbeat IPC: 2.64004 cumulative IPC: 2.72728 (Simulation time: 0 hr 2 min 6 sec) 
Heartbeat CPU 0 instructions: 60000003 cycles: 21215490 heartbeat IPC: 2.47203 cumulative IPC: 2.67209 (Simulation time: 0 hr 2 min 31 sec) 
Heartbeat CPU 0 instructions: 70000001 cycles: 25425024 heartbeat IPC: 2.37556 cumulative IPC: 2.61764 (Simulation time: 0 hr 3 min 2 sec) 
Heartbeat CPU 0 instructions: 80000001 cycles: 29347381 heartbeat IPC: 2.54949 cumulative IPC: 2.60768 (Simulation time: 0 hr 3 min 32 sec) 
Heartbeat CPU 0 instructions: 90000002 cycles: 33074440 heartbeat IPC: 2.68308 cumulative IPC: 2.61687 (Simulation time: 0 hr 3 min 57 sec) 
Heartbeat CPU 0 instructions: 100000003 cycles: 36705592 heartbeat IPC: 2.75395 cumulative IPC: 2.63142 (Simulation time: 0 hr 4 min 29 sec) 
Heartbeat CPU 0 instructions: 110000004 cycles: 40178962 heartbeat IPC: 2.87905 cumulative IPC: 2.65425 (Simulation time: 0 hr 4 min 56 sec) 
Finished CPU 0 instructions: 100000001 cycles: 37675387 cumulative IPC: 2.65425 (Simulation time: 0 hr 4 min 56 sec) 

ChampSim completed all CPUs

Region of Interest Statistics

CPU 0 cumulative IPC: 2.65425 instructions: 100000001 cycles: 37675387
cpu0_DTLB TOTAL     ACCESS:   12590189  HIT:   12574645  MISS:      15544
cpu0_DTLB LOAD      ACCESS:   12003633  HIT:   11988133  MISS:      15500
cpu0_DTLB RFO       ACCESS:     586556  HIT:     586512  MISS:         44
cpu0_DTLB PREFETCH  ACCESS:          0  HIT:          0  MISS:          0
cpu0_DTLB WRITEBACK ACCESS:          0  HIT:          0  MISS:          0
cpu0_DTLB TRANSLATION ACCESS:          0  HIT:          0  MISS:          0
cpu0_DTLB PREFETCH  REQUESTED:          0  ISSUED:          0  USEFUL:          0  USELESS:          0
cpu0_DTLB AVERAGE MISS LATENCY: 34.1783 cycles
cpu0_ITLB TOTAL     ACCESS:    6234860  HIT:    6234860  MISS:          0
cpu0_ITLB LOAD      ACCESS:    6234860  HIT:    6234860  MISS:          0
cpu0_ITLB RFO       ACCESS:          0  HIT:          0  MISS:          0
cpu0_ITLB PREFETCH  ACCESS:          0  HIT:          0  MISS:          0
cpu0_ITLB WRITEBACK ACCESS:          0  HIT:          0  MISS:          0
cpu0_ITLB TRANSLATION ACCESS:          0  HIT:          0  MISS:          0
cpu0_ITLB PREFETCH  REQUESTED:          0  ISSUED:          0  USEFUL:          0  USELESS:          0
cpu0_ITLB AVERAGE MISS LATENCY: -nan cycles
cpu0_L1I TOTAL     ACCESS:       2853  HIT:       2853  MISS:          0
cpu0_L1I LOAD      ACCESS:       2853  HIT:       2853  MISS:          0
cpu0_L1I RFO       ACCESS:          0  HIT:          0  MISS:          0
cpu0_L1I PREFETCH  ACCESS:          0  HIT:          0  MISS:          0
cpu0_L1I WRITEBACK ACCESS:          0  HIT:          0  MISS:          0
cpu0_L1I TRANSLATION ACCESS:          0  HIT:          0  MISS:          0
cpu0_L1I PREFETCH  REQUESTED:          0  ISSUED:          0  USEFUL:          0  USELESS:          0
cpu0_L1I AVERAGE MISS LATENCY: -nan cycles
cpu0_STLB TOTAL     ACCESS:      15544  HIT:      13634  MISS:       1910
cpu0_STLB LOAD      ACCESS:      15500  HIT:      13592  MISS:       1908
cpu0_STLB RFO       ACCESS:         44  HIT:         42  MISS:          2
cpu0_STLB PREFETCH  ACCESS:          0  HIT:          0  MISS:          0
cpu0_STLB WRITEBACK ACCESS:          0  HIT:          0  MISS:          0
cpu0_STLB TRANSLATION ACCESS:          0  HIT:          0  MISS:          0
cpu0_STLB PREFETCH  REQUESTED:          0  ISSUED:          0  USEFUL:          0  USELESS:          0
cpu0_STLB AVERAGE MISS LATENCY: 204.769 cycles
cpu0_L1D TOTAL     ACCESS:   14101434  HIT:   12887941  MISS:    1213493
cpu0_L1D LOAD      ACCESS:   12542070  HIT:   11329888  MISS:    1212182
cpu0_L1D RFO       ACCESS:    1557484  HIT:    1556240  MISS:       1244
cpu0_L1D PREFETCH  ACCESS:          0  HIT:          0  MISS:          0
cpu0_L1D WRITEBACK ACCESS:          0  HIT:          0  MISS:          0
cpu0_L1D TRANSLATION ACCESS:       1880  HIT:       1813  MISS:         67
cpu0_L1D PREFETCH  REQUESTED:          0  ISSUED:          0  USEFUL:          0  USELESS:          0
cpu0_L1D AVERAGE MISS LATENCY: 28.8222 cycles
cpu0_L2C TOTAL     ACCESS:    1327973  HIT:    1058352  MISS:     269621
cpu0_L2C LOAD      ACCESS:    1212182  HIT:     942700  MISS:     269482
cpu0_L2C RFO       ACCESS:       1244  HIT:       1214  MISS:         30
cpu0_L2C PREFETCH  ACCESS:          0  HIT:          0  MISS:          0
cpu0_L2C WRITEBACK ACCESS:     114480  HIT:     114388  MISS:         92
cpu0_L2C TRANSLATION ACCESS:         67  HIT:         50  MISS:         17
cpu0_L2C PREFETCH  REQUESTED:          0  ISSUED:          0  USEFUL:          0  USELESS:          0
cpu0_L2C AVERAGE MISS LATENCY: 79.9517 cycles
LLC TOTAL     ACCESS:     335155  HIT:     192488  MISS:     142667
LLC LOAD      ACCESS:     269482  HIT:     127683  MISS:     141799
LLC RFO       ACCESS:         30  HIT:         21  MISS:          9
LLC PREFETCH  ACCESS:          0  HIT:          0  MISS:          0
LLC WRITEBACK ACCESS:      65626  HIT:      64773  MISS:        853
LLC TRANSLATION ACCESS:         17  HIT:         11  MISS:          6
LLC PREFETCH  REQUESTED:          0  ISSUED:          0  USEFUL:          0  USELESS:          0
LLC AVERAGE MISS LATENCY: 111.423 cycles
Insertion Distribution: 
	LOAD 21314 0 21879 118575 
	RFO 0 0 17 0 
	PREF 0 0 0 0 
	WRITEBACK 0 0 0 861 
	 0 0 14 3 
Total Prefetch Downgrades: 0

DRAM Statistics
 CHANNEL 0
 RQ ROW_BUFFER_HIT:      99505  ROW_BUFFER_MISS:      42306
 DBUS AVG_CONGESTED_CYCLE:    3.79283
 WQ ROW_BUFFER_HIT:        662  ROW_BUFFER_MISS:        970  FULL:          0


CPU 0 Branch Prediction Accuracy: 96.352% MPKI: 1.49459 Average ROB Occupancy at Mispredict: 220.363
Branch type MPKI
BRANCH_DIRECT_JUMP: 0
BRANCH_INDIRECT: 0
BRANCH_CONDITIONAL: 1.49459
BRANCH_DIRECT_CALL: 0
BRANCH_INDIRECT_CALL: 0
BRANCH_RETURN: 0

