
*** ChampSim Multicore Out-of-Order Simulator ***

Warmup Instructions: 10000000
Simulation Instructions: 100000000
Number of CPUs: 1
Off-chip DRAM Size: 4 GiB Channels: 1 Width: 64-bit Data Rate: 3200 MT/s

VirtualMemory physical capacity: 8588881920 num_ppages: 2096895
VirtualMemory page size: 4096 log2_page_size: 12

CPU 0 runs /datasets/cs240c-wi22-a00-public/data/Assignment2/GemsFDTD_109B.trace.xz
CPU 0 Bimodal branch predictor
Basic BTB sets: 1024 ways: 8 indirect buffer size: 4096 RAS size: 64
Initialize SRRIP state
Heartbeat CPU 0 instructions: 10000004 cycles: 4294006 heartbeat IPC: 2.32883 cumulative IPC: 2.32883 (Simulation time: 0 hr 1 min 9 sec) 

Warmup complete CPU 0 instructions: 10000004 cycles: 4294006 (Simulation time: 0 hr 1 min 9 sec) 

Heartbeat CPU 0 instructions: 20000000 cycles: 35636759 heartbeat IPC: 0.319053 cumulative IPC: 0.319053 (Simulation time: 0 hr 5 min 3 sec) 
Heartbeat CPU 0 instructions: 30000004 cycles: 55921583 heartbeat IPC: 0.49298 cumulative IPC: 0.38739 (Simulation time: 0 hr 7 min 15 sec) 
Heartbeat CPU 0 instructions: 40000004 cycles: 62010004 heartbeat IPC: 1.64246 cumulative IPC: 0.519787 (Simulation time: 0 hr 8 min 11 sec) 
Heartbeat CPU 0 instructions: 50000002 cycles: 82678641 heartbeat IPC: 0.483825 cumulative IPC: 0.510304 (Simulation time: 0 hr 10 min 31 sec) 
Heartbeat CPU 0 instructions: 60000002 cycles: 125571685 heartbeat IPC: 0.233138 cumulative IPC: 0.412277 (Simulation time: 0 hr 15 min 24 sec) 
Heartbeat CPU 0 instructions: 70000001 cycles: 166881166 heartbeat IPC: 0.242075 cumulative IPC: 0.369033 (Simulation time: 0 hr 20 min 4 sec) 
Heartbeat CPU 0 instructions: 80000004 cycles: 208167512 heartbeat IPC: 0.242211 cumulative IPC: 0.34335 (Simulation time: 0 hr 24 min 43 sec) 
Heartbeat CPU 0 instructions: 90000000 cycles: 249306280 heartbeat IPC: 0.24308 cumulative IPC: 0.326514 (Simulation time: 0 hr 29 min 20 sec) 
Heartbeat CPU 0 instructions: 100000003 cycles: 290539827 heartbeat IPC: 0.242521 cumulative IPC: 0.314415 (Simulation time: 0 hr 34 min 2 sec) 
Heartbeat CPU 0 instructions: 110000004 cycles: 331735920 heartbeat IPC: 0.242741 cumulative IPC: 0.305398 (Simulation time: 0 hr 38 min 48 sec) 
Finished CPU 0 instructions: 100000000 cycles: 327441914 cumulative IPC: 0.305398 (Simulation time: 0 hr 38 min 48 sec) 

ChampSim completed all CPUs

Region of Interest Statistics

CPU 0 cumulative IPC: 0.305398 instructions: 100000000 cycles: 327441914
cpu0_DTLB TOTAL     ACCESS:   26489110  HIT:   26289682  MISS:     199428
cpu0_DTLB LOAD      ACCESS:   21058951  HIT:   20861527  MISS:     197424
cpu0_DTLB RFO       ACCESS:    5430159  HIT:    5428155  MISS:       2004
cpu0_DTLB PREFETCH  ACCESS:          0  HIT:          0  MISS:          0
cpu0_DTLB WRITEBACK ACCESS:          0  HIT:          0  MISS:          0
cpu0_DTLB TRANSLATION ACCESS:          0  HIT:          0  MISS:          0
cpu0_DTLB PREFETCH  REQUESTED:          0  ISSUED:          0  USEFUL:          0  USELESS:          0
cpu0_DTLB AVERAGE MISS LATENCY: 433.006 cycles
cpu0_ITLB TOTAL     ACCESS:    2069519  HIT:    2069501  MISS:         18
cpu0_ITLB LOAD      ACCESS:    2069519  HIT:    2069501  MISS:         18
cpu0_ITLB RFO       ACCESS:          0  HIT:          0  MISS:          0
cpu0_ITLB PREFETCH  ACCESS:          0  HIT:          0  MISS:          0
cpu0_ITLB WRITEBACK ACCESS:          0  HIT:          0  MISS:          0
cpu0_ITLB TRANSLATION ACCESS:          0  HIT:          0  MISS:          0
cpu0_ITLB PREFETCH  REQUESTED:          0  ISSUED:          0  USEFUL:          0  USELESS:          0
cpu0_ITLB AVERAGE MISS LATENCY: 240.222 cycles
cpu0_L1I TOTAL     ACCESS:    1722999  HIT:    1722569  MISS:        430
cpu0_L1I LOAD      ACCESS:    1722999  HIT:    1722569  MISS:        430
cpu0_L1I RFO       ACCESS:          0  HIT:          0  MISS:          0
cpu0_L1I PREFETCH  ACCESS:          0  HIT:          0  MISS:          0
cpu0_L1I WRITEBACK ACCESS:          0  HIT:          0  MISS:          0
cpu0_L1I TRANSLATION ACCESS:          0  HIT:          0  MISS:          0
cpu0_L1I PREFETCH  REQUESTED:          0  ISSUED:          0  USEFUL:          0  USELESS:          0
cpu0_L1I AVERAGE MISS LATENCY: 344.16 cycles
cpu0_STLB TOTAL     ACCESS:     199446  HIT:      33985  MISS:     165461
cpu0_STLB LOAD      ACCESS:     197442  HIT:      32675  MISS:     164767
cpu0_STLB RFO       ACCESS:       2004  HIT:       1310  MISS:        694
cpu0_STLB PREFETCH  ACCESS:          0  HIT:          0  MISS:          0
cpu0_STLB WRITEBACK ACCESS:          0  HIT:          0  MISS:          0
cpu0_STLB TRANSLATION ACCESS:          0  HIT:          0  MISS:          0
cpu0_STLB PREFETCH  REQUESTED:          0  ISSUED:          0  USEFUL:          0  USELESS:          0
cpu0_STLB AVERAGE MISS LATENCY: 510.959 cycles
cpu0_L1D TOTAL     ACCESS:   22492088  HIT:   19261955  MISS:    3230133
cpu0_L1D LOAD      ACCESS:   13394368  HIT:   10294531  MISS:    3099837
cpu0_L1D RFO       ACCESS:    9007970  HIT:    8880357  MISS:     127613
cpu0_L1D PREFETCH  ACCESS:          0  HIT:          0  MISS:          0
cpu0_L1D WRITEBACK ACCESS:          0  HIT:          0  MISS:          0
cpu0_L1D TRANSLATION ACCESS:      89750  HIT:      87067  MISS:       2683
cpu0_L1D PREFETCH  REQUESTED:          0  ISSUED:          0  USEFUL:          0  USELESS:          0
cpu0_L1D AVERAGE MISS LATENCY: 799.459 cycles
cpu0_L2C TOTAL     ACCESS:    4595395  HIT:    1423678  MISS:    3171717
cpu0_L2C LOAD      ACCESS:    3100267  HIT:      41237  MISS:    3059030
cpu0_L2C RFO       ACCESS:     127613  HIT:      15220  MISS:     112393
cpu0_L2C PREFETCH  ACCESS:          0  HIT:          0  MISS:          0
cpu0_L2C WRITEBACK ACCESS:    1364832  HIT:    1364733  MISS:         99
cpu0_L2C TRANSLATION ACCESS:       2683  HIT:       2488  MISS:        195
cpu0_L2C PREFETCH  REQUESTED:          0  ISSUED:          0  USEFUL:          0  USELESS:          0
cpu0_L2C AVERAGE MISS LATENCY: 803.01 cycles
LLC TOTAL     ACCESS:    4522806  HIT:     730190  MISS:    3792616
LLC LOAD      ACCESS:    3059028  HIT:     427843  MISS:    2631185
LLC RFO       ACCESS:     112393  HIT:     102693  MISS:       9700
LLC PREFETCH  ACCESS:          0  HIT:          0  MISS:          0
LLC WRITEBACK ACCESS:    1351190  HIT:     199544  MISS:    1151646
LLC TRANSLATION ACCESS:        195  HIT:        110  MISS:         85
LLC PREFETCH  REQUESTED:          0  ISSUED:          0  USEFUL:          0  USELESS:          0
LLC AVERAGE MISS LATENCY: 653.982 cycles
Insertion Distribution: 
	LOAD 0 0 804108 2054811 
	RFO 0 0 9110 592 
	PREF 0 0 0 0 
	WRITEBACK 0 0 0 1264029 
	 0 0 71 32 
Total Prefetch Downgrades: 0

DRAM Statistics
 CHANNEL 0
 RQ ROW_BUFFER_HIT:      44364  ROW_BUFFER_MISS:    2596586
 DBUS AVG_CONGESTED_CYCLE:    3.99653
 WQ ROW_BUFFER_HIT:      23124  ROW_BUFFER_MISS:    1226911  FULL:      76549


CPU 0 Branch Prediction Accuracy: 98.929% MPKI: 0.55515 Average ROB Occupancy at Mispredict: 264.504
Branch type MPKI
BRANCH_DIRECT_JUMP: 0.00045
BRANCH_INDIRECT: 1e-05
BRANCH_CONDITIONAL: 0.5534
BRANCH_DIRECT_CALL: 0.00065
BRANCH_INDIRECT_CALL: 0
BRANCH_RETURN: 0.00064

