
*** ChampSim Multicore Out-of-Order Simulator ***

Warmup Instructions: 10000000
Simulation Instructions: 100000000
Number of CPUs: 1
Off-chip DRAM Size: 4 GiB Channels: 1 Width: 64-bit Data Rate: 3200 MT/s

VirtualMemory physical capacity: 8588881920 num_ppages: 2096895
VirtualMemory page size: 4096 log2_page_size: 12

CPU 0 runs /datasets/cs240c-wi22-a00-public/data/Assignment2/omnetpp_4B.trace.xz
CPU 0 Bimodal branch predictor
Basic BTB sets: 1024 ways: 8 indirect buffer size: 4096 RAS size: 64
Initialize SRRIP state
Heartbeat CPU 0 instructions: 10000002 cycles: 2526501 heartbeat IPC: 3.95804 cumulative IPC: 3.95804 (Simulation time: 0 hr 0 min 25 sec) 

Warmup complete CPU 0 instructions: 10000002 cycles: 2526501 (Simulation time: 0 hr 0 min 25 sec) 

Heartbeat CPU 0 instructions: 20000000 cycles: 9123046 heartbeat IPC: 1.51594 cumulative IPC: 1.51594 (Simulation time: 0 hr 0 min 56 sec) 
Heartbeat CPU 0 instructions: 30000001 cycles: 15776151 heartbeat IPC: 1.50306 cumulative IPC: 1.50947 (Simulation time: 0 hr 1 min 37 sec) 
Heartbeat CPU 0 instructions: 40000002 cycles: 22483470 heartbeat IPC: 1.49091 cumulative IPC: 1.50323 (Simulation time: 0 hr 2 min 18 sec) 
Heartbeat CPU 0 instructions: 50000000 cycles: 29287607 heartbeat IPC: 1.46969 cumulative IPC: 1.49471 (Simulation time: 0 hr 2 min 59 sec) 
Heartbeat CPU 0 instructions: 60000000 cycles: 35944400 heartbeat IPC: 1.50222 cumulative IPC: 1.4962 (Simulation time: 0 hr 3 min 41 sec) 
Heartbeat CPU 0 instructions: 70000000 cycles: 42507416 heartbeat IPC: 1.52369 cumulative IPC: 1.50072 (Simulation time: 0 hr 4 min 19 sec) 
Heartbeat CPU 0 instructions: 80000000 cycles: 49085467 heartbeat IPC: 1.52021 cumulative IPC: 1.50347 (Simulation time: 0 hr 5 min 1 sec) 
Heartbeat CPU 0 instructions: 90000000 cycles: 56005632 heartbeat IPC: 1.44505 cumulative IPC: 1.49591 (Simulation time: 0 hr 5 min 47 sec) 
Heartbeat CPU 0 instructions: 100000001 cycles: 62349101 heartbeat IPC: 1.57642 cumulative IPC: 1.50445 (Simulation time: 0 hr 6 min 23 sec) 
Heartbeat CPU 0 instructions: 110000002 cycles: 69000131 heartbeat IPC: 1.50353 cumulative IPC: 1.50436 (Simulation time: 0 hr 7 min 4 sec) 
Finished CPU 0 instructions: 100000000 cycles: 66473630 cumulative IPC: 1.50436 (Simulation time: 0 hr 7 min 4 sec) 

ChampSim completed all CPUs

Region of Interest Statistics

CPU 0 cumulative IPC: 1.50436 instructions: 100000000 cycles: 66473630
cpu0_DTLB TOTAL     ACCESS:   11676210  HIT:   10244331  MISS:    1431879
cpu0_DTLB LOAD      ACCESS:    9089704  HIT:    7659387  MISS:    1430317
cpu0_DTLB RFO       ACCESS:    2586506  HIT:    2584944  MISS:       1562
cpu0_DTLB PREFETCH  ACCESS:          0  HIT:          0  MISS:          0
cpu0_DTLB WRITEBACK ACCESS:          0  HIT:          0  MISS:          0
cpu0_DTLB TRANSLATION ACCESS:          0  HIT:          0  MISS:          0
cpu0_DTLB PREFETCH  REQUESTED:          0  ISSUED:          0  USEFUL:          0  USELESS:          0
cpu0_DTLB AVERAGE MISS LATENCY: 17.57 cycles
cpu0_ITLB TOTAL     ACCESS:    7987617  HIT:    7963450  MISS:      24167
cpu0_ITLB LOAD      ACCESS:    7987617  HIT:    7963450  MISS:      24167
cpu0_ITLB RFO       ACCESS:          0  HIT:          0  MISS:          0
cpu0_ITLB PREFETCH  ACCESS:          0  HIT:          0  MISS:          0
cpu0_ITLB WRITEBACK ACCESS:          0  HIT:          0  MISS:          0
cpu0_ITLB TRANSLATION ACCESS:          0  HIT:          0  MISS:          0
cpu0_ITLB PREFETCH  REQUESTED:          0  ISSUED:          0  USEFUL:          0  USELESS:          0
cpu0_ITLB AVERAGE MISS LATENCY: 10.8491 cycles
cpu0_L1I TOTAL     ACCESS:    1939575  HIT:    1876717  MISS:      62858
cpu0_L1I LOAD      ACCESS:    1939575  HIT:    1876717  MISS:      62858
cpu0_L1I RFO       ACCESS:          0  HIT:          0  MISS:          0
cpu0_L1I PREFETCH  ACCESS:          0  HIT:          0  MISS:          0
cpu0_L1I WRITEBACK ACCESS:          0  HIT:          0  MISS:          0
cpu0_L1I TRANSLATION ACCESS:          0  HIT:          0  MISS:          0
cpu0_L1I PREFETCH  REQUESTED:          0  ISSUED:          0  USEFUL:          0  USELESS:          0
cpu0_L1I AVERAGE MISS LATENCY: 45.9347 cycles
cpu0_STLB TOTAL     ACCESS:    1456046  HIT:      23497  MISS:    1432549
cpu0_STLB LOAD      ACCESS:    1454484  HIT:      22752  MISS:    1431732
cpu0_STLB RFO       ACCESS:       1562  HIT:        745  MISS:        817
cpu0_STLB PREFETCH  ACCESS:          0  HIT:          0  MISS:          0
cpu0_STLB WRITEBACK ACCESS:          0  HIT:          0  MISS:          0
cpu0_STLB TRANSLATION ACCESS:          0  HIT:          0  MISS:          0
cpu0_STLB PREFETCH  REQUESTED:          0  ISSUED:          0  USEFUL:          0  USELESS:          0
cpu0_STLB AVERAGE MISS LATENCY: 8.15353 cycles
cpu0_L1D TOTAL     ACCESS:   12517082  HIT:   10027180  MISS:    2489902
cpu0_L1D LOAD      ACCESS:    7256121  HIT:    4804924  MISS:    2451197
cpu0_L1D RFO       ACCESS:    4653115  HIT:    4615399  MISS:      37716
cpu0_L1D PREFETCH  ACCESS:          0  HIT:          0  MISS:          0
cpu0_L1D WRITEBACK ACCESS:          0  HIT:          0  MISS:          0
cpu0_L1D TRANSLATION ACCESS:     607846  HIT:     606857  MISS:        989
cpu0_L1D PREFETCH  REQUESTED:          0  ISSUED:          0  USEFUL:          0  USELESS:          0
cpu0_L1D AVERAGE MISS LATENCY: 64.0796 cycles
cpu0_L2C TOTAL     ACCESS:    2633704  HIT:     114302  MISS:    2519402
cpu0_L2C LOAD      ACCESS:    2514055  HIT:      32371  MISS:    2481684
cpu0_L2C RFO       ACCESS:      37716  HIT:        795  MISS:      36921
cpu0_L2C PREFETCH  ACCESS:          0  HIT:          0  MISS:          0
cpu0_L2C WRITEBACK ACCESS:      80944  HIT:      80944  MISS:          0
cpu0_L2C TRANSLATION ACCESS:        989  HIT:        192  MISS:        797
cpu0_L2C PREFETCH  REQUESTED:          0  ISSUED:          0  USEFUL:          0  USELESS:          0
cpu0_L2C AVERAGE MISS LATENCY: 52.6405 cycles
LLC TOTAL     ACCESS:    2598940  HIT:    2336356  MISS:     262584
LLC LOAD      ACCESS:    2481681  HIT:    2241700  MISS:     239981
LLC RFO       ACCESS:      36921  HIT:      20503  MISS:      16418
LLC PREFETCH  ACCESS:          0  HIT:          0  MISS:          0
LLC WRITEBACK ACCESS:      79541  HIT:      73421  MISS:       6120
LLC TRANSLATION ACCESS:        797  HIT:        732  MISS:         65
LLC PREFETCH  REQUESTED:          0  ISSUED:          0  USEFUL:          0  USELESS:          0
LLC AVERAGE MISS LATENCY: 303.497 cycles
Insertion Distribution: 
	LOAD 106732 0 107736 86885 
	RFO 2843 0 5980 9416 
	PREF 0 0 0 0 
	WRITEBACK 0 0 0 6887 
	 19 0 69 6 
Total Prefetch Downgrades: 0

DRAM Statistics
 CHANNEL 0
 RQ ROW_BUFFER_HIT:      23384  ROW_BUFFER_MISS:     231787
 DBUS AVG_CONGESTED_CYCLE:    3.94883
 WQ ROW_BUFFER_HIT:       5657  ROW_BUFFER_MISS:      41762  FULL:          0


CPU 0 Branch Prediction Accuracy: 97.4293% MPKI: 8.26178 Average ROB Occupancy at Mispredict: 56.9825
Branch type MPKI
BRANCH_DIRECT_JUMP: 0.00037
BRANCH_INDIRECT: 0.12485
BRANCH_CONDITIONAL: 8.10493
BRANCH_DIRECT_CALL: 0.00326
BRANCH_INDIRECT_CALL: 0.00558
BRANCH_RETURN: 0.02279

