
*** ChampSim Multicore Out-of-Order Simulator ***

Warmup Instructions: 10000000
Simulation Instructions: 100000000
Number of CPUs: 1
Off-chip DRAM Size: 4 GiB Channels: 1 Width: 64-bit Data Rate: 3200 MT/s

VirtualMemory physical capacity: 8588881920 num_ppages: 2096895
VirtualMemory page size: 4096 log2_page_size: 12

CPU 0 runs /datasets/cs240c-wi22-a00-public/data/Assignment2/zeusmp_600B.trace.xz
CPU 0 Bimodal branch predictor
Basic BTB sets: 1024 ways: 8 indirect buffer size: 4096 RAS size: 64
Initialize SRRIP state
Heartbeat CPU 0 instructions: 10000001 cycles: 2573841 heartbeat IPC: 3.88524 cumulative IPC: 3.88524 (Simulation time: 0 hr 0 min 26 sec) 

Warmup complete CPU 0 instructions: 10000001 cycles: 2573841 (Simulation time: 0 hr 0 min 26 sec) 

Heartbeat CPU 0 instructions: 20000001 cycles: 7448888 heartbeat IPC: 2.05126 cumulative IPC: 2.05126 (Simulation time: 0 hr 1 min 3 sec) 
Heartbeat CPU 0 instructions: 30000004 cycles: 12884207 heartbeat IPC: 1.83982 cumulative IPC: 1.9398 (Simulation time: 0 hr 1 min 40 sec) 
Heartbeat CPU 0 instructions: 40000000 cycles: 18357428 heartbeat IPC: 1.82708 cumulative IPC: 1.90071 (Simulation time: 0 hr 2 min 16 sec) 
Heartbeat CPU 0 instructions: 50000001 cycles: 23825102 heartbeat IPC: 1.82893 cumulative IPC: 1.88224 (Simulation time: 0 hr 2 min 52 sec) 
Heartbeat CPU 0 instructions: 60000000 cycles: 29318947 heartbeat IPC: 1.82022 cumulative IPC: 1.8695 (Simulation time: 0 hr 3 min 28 sec) 
Heartbeat CPU 0 instructions: 70000003 cycles: 34816023 heartbeat IPC: 1.81915 cumulative IPC: 1.86092 (Simulation time: 0 hr 4 min 6 sec) 
Heartbeat CPU 0 instructions: 80000000 cycles: 40285480 heartbeat IPC: 1.82833 cumulative IPC: 1.85619 (Simulation time: 0 hr 4 min 42 sec) 
Heartbeat CPU 0 instructions: 90000001 cycles: 45773056 heartbeat IPC: 1.8223 cumulative IPC: 1.85189 (Simulation time: 0 hr 5 min 18 sec) 
Heartbeat CPU 0 instructions: 100000001 cycles: 51258517 heartbeat IPC: 1.823 cumulative IPC: 1.84863 (Simulation time: 0 hr 5 min 55 sec) 
Heartbeat CPU 0 instructions: 110000003 cycles: 56751108 heartbeat IPC: 1.82063 cumulative IPC: 1.84579 (Simulation time: 0 hr 6 min 33 sec) 
Finished CPU 0 instructions: 100000002 cycles: 54177267 cumulative IPC: 1.84579 (Simulation time: 0 hr 6 min 33 sec) 

ChampSim completed all CPUs

Region of Interest Statistics

CPU 0 cumulative IPC: 1.84579 instructions: 100000002 cycles: 54177267
cpu0_DTLB TOTAL     ACCESS:   17106887  HIT:   16951499  MISS:     155388
cpu0_DTLB LOAD      ACCESS:   12987976  HIT:   12859641  MISS:     128335
cpu0_DTLB RFO       ACCESS:    4118911  HIT:    4091858  MISS:      27053
cpu0_DTLB PREFETCH  ACCESS:          0  HIT:          0  MISS:          0
cpu0_DTLB WRITEBACK ACCESS:          0  HIT:          0  MISS:          0
cpu0_DTLB TRANSLATION ACCESS:          0  HIT:          0  MISS:          0
cpu0_DTLB PREFETCH  REQUESTED:          0  ISSUED:          0  USEFUL:          0  USELESS:          0
cpu0_DTLB AVERAGE MISS LATENCY: 15.4562 cycles
cpu0_ITLB TOTAL     ACCESS:    2611199  HIT:    2611196  MISS:          3
cpu0_ITLB LOAD      ACCESS:    2611199  HIT:    2611196  MISS:          3
cpu0_ITLB RFO       ACCESS:          0  HIT:          0  MISS:          0
cpu0_ITLB PREFETCH  ACCESS:          0  HIT:          0  MISS:          0
cpu0_ITLB WRITEBACK ACCESS:          0  HIT:          0  MISS:          0
cpu0_ITLB TRANSLATION ACCESS:          0  HIT:          0  MISS:          0
cpu0_ITLB PREFETCH  REQUESTED:          0  ISSUED:          0  USEFUL:          0  USELESS:          0
cpu0_ITLB AVERAGE MISS LATENCY: 375.333 cycles
cpu0_L1I TOTAL     ACCESS:    5803715  HIT:    5803612  MISS:        103
cpu0_L1I LOAD      ACCESS:    5803715  HIT:    5803612  MISS:        103
cpu0_L1I RFO       ACCESS:          0  HIT:          0  MISS:          0
cpu0_L1I PREFETCH  ACCESS:          0  HIT:          0  MISS:          0
cpu0_L1I WRITEBACK ACCESS:          0  HIT:          0  MISS:          0
cpu0_L1I TRANSLATION ACCESS:          0  HIT:          0  MISS:          0
cpu0_L1I PREFETCH  REQUESTED:          0  ISSUED:          0  USEFUL:          0  USELESS:          0
cpu0_L1I AVERAGE MISS LATENCY: 256.874 cycles
cpu0_STLB TOTAL     ACCESS:     155391  HIT:     150400  MISS:       4991
cpu0_STLB LOAD      ACCESS:     128338  HIT:     123399  MISS:       4939
cpu0_STLB RFO       ACCESS:      27053  HIT:      27001  MISS:         52
cpu0_STLB PREFETCH  ACCESS:          0  HIT:          0  MISS:          0
cpu0_STLB WRITEBACK ACCESS:          0  HIT:          0  MISS:          0
cpu0_STLB TRANSLATION ACCESS:          0  HIT:          0  MISS:          0
cpu0_STLB PREFETCH  REQUESTED:          0  ISSUED:          0  USEFUL:          0  USELESS:          0
cpu0_STLB AVERAGE MISS LATENCY: 192.942 cycles
cpu0_L1D TOTAL     ACCESS:   20412950  HIT:   20092032  MISS:     320918
cpu0_L1D LOAD      ACCESS:   13175935  HIT:   12858791  MISS:     317144
cpu0_L1D RFO       ACCESS:    7232025  HIT:    7228578  MISS:       3447
cpu0_L1D PREFETCH  ACCESS:          0  HIT:          0  MISS:          0
cpu0_L1D WRITEBACK ACCESS:          0  HIT:          0  MISS:          0
cpu0_L1D TRANSLATION ACCESS:       4990  HIT:       4663  MISS:        327
cpu0_L1D PREFETCH  REQUESTED:          0  ISSUED:          0  USEFUL:          0  USELESS:          0
cpu0_L1D AVERAGE MISS LATENCY: 183.221 cycles
cpu0_L2C TOTAL     ACCESS:     383991  HIT:      66698  MISS:     317293
cpu0_L2C LOAD      ACCESS:     317247  HIT:       3425  MISS:     313822
cpu0_L2C RFO       ACCESS:       3447  HIT:          1  MISS:       3446
cpu0_L2C PREFETCH  ACCESS:          0  HIT:          0  MISS:          0
cpu0_L2C WRITEBACK ACCESS:      62970  HIT:      62970  MISS:          0
cpu0_L2C TRANSLATION ACCESS:        327  HIT:        302  MISS:         25
cpu0_L2C PREFETCH  REQUESTED:          0  ISSUED:          0  USEFUL:          0  USELESS:          0
cpu0_L2C AVERAGE MISS LATENCY: 174.256 cycles
LLC TOTAL     ACCESS:     380236  HIT:      12221  MISS:     368015
LLC LOAD      ACCESS:     313822  HIT:       5456  MISS:     308366
LLC RFO       ACCESS:       3446  HIT:          0  MISS:       3446
LLC PREFETCH  ACCESS:          0  HIT:          0  MISS:          0
LLC WRITEBACK ACCESS:      62943  HIT:       6746  MISS:      56197
LLC TRANSLATION ACCESS:         25  HIT:         19  MISS:          6
LLC PREFETCH  REQUESTED:          0  ISSUED:          0  USEFUL:          0  USELESS:          0
LLC AVERAGE MISS LATENCY: 132.134 cycles
Insertion Distribution: 
	LOAD 4544 0 34500 295708 
	RFO 0 0 4471 4971 
	PREF 0 0 0 0 
	WRITEBACK 0 0 0 56328 
	 0 0 21 1 
Total Prefetch Downgrades: 0

DRAM Statistics
 CHANNEL 0
 RQ ROW_BUFFER_HIT:      60717  ROW_BUFFER_MISS:     251102
 DBUS AVG_CONGESTED_CYCLE:    3.74222
 WQ ROW_BUFFER_HIT:      21756  ROW_BUFFER_MISS:      38676  FULL:          0


CPU 0 Branch Prediction Accuracy: 96.8332% MPKI: 1.13776 Average ROB Occupancy at Mispredict: 151.907
Branch type MPKI
BRANCH_DIRECT_JUMP: 3e-05
BRANCH_INDIRECT: 0
BRANCH_CONDITIONAL: 1.13771
BRANCH_DIRECT_CALL: 1e-05
BRANCH_INDIRECT_CALL: 0
BRANCH_RETURN: 1e-05

