
*** ChampSim Multicore Out-of-Order Simulator ***

Warmup Instructions: 10000000
Simulation Instructions: 100000000
Number of CPUs: 1
Off-chip DRAM Size: 4 GiB Channels: 1 Width: 64-bit Data Rate: 3200 MT/s

VirtualMemory physical capacity: 8588881920 num_ppages: 2096895
VirtualMemory page size: 4096 log2_page_size: 12

CPU 0 runs /datasets/cs240c-wi22-a00-public/data/Assignment2/milc_360B.trace.xz
CPU 0 Bimodal branch predictor
Basic BTB sets: 1024 ways: 8 indirect buffer size: 4096 RAS size: 64
Initialize SRRIP state
Heartbeat CPU 0 instructions: 10000001 cycles: 2500103 heartbeat IPC: 3.99984 cumulative IPC: 3.99984 (Simulation time: 0 hr 0 min 29 sec) 

Warmup complete CPU 0 instructions: 10000001 cycles: 2500103 (Simulation time: 0 hr 0 min 29 sec) 

Heartbeat CPU 0 instructions: 20000000 cycles: 20099420 heartbeat IPC: 0.568204 cumulative IPC: 0.568204 (Simulation time: 0 hr 2 min 21 sec) 
Heartbeat CPU 0 instructions: 30000004 cycles: 37599589 heartbeat IPC: 0.571423 cumulative IPC: 0.569809 (Simulation time: 0 hr 4 min 11 sec) 
Heartbeat CPU 0 instructions: 40000001 cycles: 55115886 heartbeat IPC: 0.570897 cumulative IPC: 0.570171 (Simulation time: 0 hr 5 min 53 sec) 
Heartbeat CPU 0 instructions: 50000001 cycles: 76030985 heartbeat IPC: 0.478123 cumulative IPC: 0.543989 (Simulation time: 0 hr 8 min 11 sec) 
Heartbeat CPU 0 instructions: 60000000 cycles: 94835679 heartbeat IPC: 0.531782 cumulative IPC: 0.541503 (Simulation time: 0 hr 9 min 54 sec) 
Heartbeat CPU 0 instructions: 70000000 cycles: 114162237 heartbeat IPC: 0.517423 cumulative IPC: 0.537335 (Simulation time: 0 hr 11 min 34 sec) 
Heartbeat CPU 0 instructions: 80000000 cycles: 131095902 heartbeat IPC: 0.59054 cumulative IPC: 0.544341 (Simulation time: 0 hr 13 min 5 sec) 
Heartbeat CPU 0 instructions: 90000000 cycles: 147016744 heartbeat IPC: 0.628107 cumulative IPC: 0.553569 (Simulation time: 0 hr 14 min 33 sec) 
Heartbeat CPU 0 instructions: 100000002 cycles: 162989715 heartbeat IPC: 0.626058 cumulative IPC: 0.560784 (Simulation time: 0 hr 16 min 0 sec) 
Heartbeat CPU 0 instructions: 110000003 cycles: 179036810 heartbeat IPC: 0.623166 cumulative IPC: 0.566454 (Simulation time: 0 hr 17 min 26 sec) 
Finished CPU 0 instructions: 100000002 cycles: 176536707 cumulative IPC: 0.566454 (Simulation time: 0 hr 17 min 26 sec) 

ChampSim completed all CPUs

Region of Interest Statistics

CPU 0 cumulative IPC: 0.566454 instructions: 100000002 cycles: 176536707
cpu0_DTLB TOTAL     ACCESS:   15531367  HIT:   15316620  MISS:     214747
cpu0_DTLB LOAD      ACCESS:    9091890  HIT:    8879359  MISS:     212531
cpu0_DTLB RFO       ACCESS:    6439477  HIT:    6437261  MISS:       2216
cpu0_DTLB PREFETCH  ACCESS:          0  HIT:          0  MISS:          0
cpu0_DTLB WRITEBACK ACCESS:          0  HIT:          0  MISS:          0
cpu0_DTLB TRANSLATION ACCESS:          0  HIT:          0  MISS:          0
cpu0_DTLB PREFETCH  REQUESTED:          0  ISSUED:          0  USEFUL:          0  USELESS:          0
cpu0_DTLB AVERAGE MISS LATENCY: 83.1075 cycles
cpu0_ITLB TOTAL     ACCESS:    2730847  HIT:    2730844  MISS:          3
cpu0_ITLB LOAD      ACCESS:    2730847  HIT:    2730844  MISS:          3
cpu0_ITLB RFO       ACCESS:          0  HIT:          0  MISS:          0
cpu0_ITLB PREFETCH  ACCESS:          0  HIT:          0  MISS:          0
cpu0_ITLB WRITEBACK ACCESS:          0  HIT:          0  MISS:          0
cpu0_ITLB TRANSLATION ACCESS:          0  HIT:          0  MISS:          0
cpu0_ITLB PREFETCH  REQUESTED:          0  ISSUED:          0  USEFUL:          0  USELESS:          0
cpu0_ITLB AVERAGE MISS LATENCY: 518.667 cycles
cpu0_L1I TOTAL     ACCESS:    6955246  HIT:    6955218  MISS:         28
cpu0_L1I LOAD      ACCESS:    6955246  HIT:    6955218  MISS:         28
cpu0_L1I RFO       ACCESS:          0  HIT:          0  MISS:          0
cpu0_L1I PREFETCH  ACCESS:          0  HIT:          0  MISS:          0
cpu0_L1I WRITEBACK ACCESS:          0  HIT:          0  MISS:          0
cpu0_L1I TRANSLATION ACCESS:          0  HIT:          0  MISS:          0
cpu0_L1I PREFETCH  REQUESTED:          0  ISSUED:          0  USEFUL:          0  USELESS:          0
cpu0_L1I AVERAGE MISS LATENCY: 261.607 cycles
cpu0_STLB TOTAL     ACCESS:     214750  HIT:        127  MISS:     214623
cpu0_STLB LOAD      ACCESS:     212534  HIT:        100  MISS:     212434
cpu0_STLB RFO       ACCESS:       2216  HIT:         27  MISS:       2189
cpu0_STLB PREFETCH  ACCESS:          0  HIT:          0  MISS:          0
cpu0_STLB WRITEBACK ACCESS:          0  HIT:          0  MISS:          0
cpu0_STLB TRANSLATION ACCESS:          0  HIT:          0  MISS:          0
cpu0_STLB PREFETCH  REQUESTED:          0  ISSUED:          0  USEFUL:          0  USELESS:          0
cpu0_STLB AVERAGE MISS LATENCY: 74.1562 cycles
cpu0_L1D TOTAL     ACCESS:   24602894  HIT:   22506503  MISS:    2096391
cpu0_L1D LOAD      ACCESS:    6428110  HIT:    4472112  MISS:    1955998
cpu0_L1D RFO       ACCESS:   17960605  HIT:   17820596  MISS:     140009
cpu0_L1D PREFETCH  ACCESS:          0  HIT:          0  MISS:          0
cpu0_L1D WRITEBACK ACCESS:          0  HIT:          0  MISS:          0
cpu0_L1D TRANSLATION ACCESS:     214179  HIT:     213795  MISS:        384
cpu0_L1D PREFETCH  REQUESTED:          0  ISSUED:          0  USEFUL:          0  USELESS:          0
cpu0_L1D AVERAGE MISS LATENCY: 338.106 cycles
cpu0_L2C TOTAL     ACCESS:    2839086  HIT:     742662  MISS:    2096424
cpu0_L2C LOAD      ACCESS:    1956026  HIT:          0  MISS:    1956026
cpu0_L2C RFO       ACCESS:     140009  HIT:          0  MISS:     140009
cpu0_L2C PREFETCH  ACCESS:          0  HIT:          0  MISS:          0
cpu0_L2C WRITEBACK ACCESS:     742667  HIT:     742660  MISS:          7
cpu0_L2C TRANSLATION ACCESS:        384  HIT:          2  MISS:        382
cpu0_L2C PREFETCH  REQUESTED:          0  ISSUED:          0  USEFUL:          0  USELESS:          0
cpu0_L2C AVERAGE MISS LATENCY: 327.003 cycles
LLC TOTAL     ACCESS:    2839080  HIT:      42472  MISS:    2796608
LLC LOAD      ACCESS:    1956026  HIT:      14469  MISS:    1941557
LLC RFO       ACCESS:     140009  HIT:         18  MISS:     139991
LLC PREFETCH  ACCESS:          0  HIT:          0  MISS:          0
LLC WRITEBACK ACCESS:     742663  HIT:      27666  MISS:     714997
LLC TRANSLATION ACCESS:        382  HIT:        319  MISS:         63
LLC PREFETCH  REQUESTED:          0  ISSUED:          0  USEFUL:          0  USELESS:          0
LLC AVERAGE MISS LATENCY: 229.389 cycles
Insertion Distribution: 
	LOAD 0 0 77110 2019666 
	RFO 0 0 16169 123824 
	PREF 0 0 0 0 
	WRITEBACK 0 0 0 781554 
	 0 0 21 57 
Total Prefetch Downgrades: 0

DRAM Statistics
 CHANNEL 0
 RQ ROW_BUFFER_HIT:     356792  ROW_BUFFER_MISS:    1724812
 DBUS AVG_CONGESTED_CYCLE:    3.94637
 WQ ROW_BUFFER_HIT:      42570  ROW_BUFFER_MISS:     685604  FULL:          0


CPU 0 Branch Prediction Accuracy: 99.9991% MPKI: 0.00037 Average ROB Occupancy at Mispredict: 87.7838
Branch type MPKI
BRANCH_DIRECT_JUMP: 4e-05
BRANCH_INDIRECT: 0
BRANCH_CONDITIONAL: 0.00015
BRANCH_DIRECT_CALL: 9e-05
BRANCH_INDIRECT_CALL: 0
BRANCH_RETURN: 9e-05

