
*** ChampSim Multicore Out-of-Order Simulator ***

Warmup Instructions: 10000000
Simulation Instructions: 100000000
Number of CPUs: 1
Off-chip DRAM Size: 4 GiB Channels: 1 Width: 64-bit Data Rate: 3200 MT/s

VirtualMemory physical capacity: 8588881920 num_ppages: 2096895
VirtualMemory page size: 4096 log2_page_size: 12

CPU 0 runs /datasets/cs240c-wi22-a00-public/data/Assignment2/zeusmp_300B.trace.xz
CPU 0 Bimodal branch predictor
Basic BTB sets: 1024 ways: 8 indirect buffer size: 4096 RAS size: 64
Initialize SRRIP state
Heartbeat CPU 0 instructions: 10000000 cycles: 2814860 heartbeat IPC: 3.55257 cumulative IPC: 3.55257 (Simulation time: 0 hr 0 min 30 sec) 

Warmup complete CPU 0 instructions: 10000002 cycles: 2814863 (Simulation time: 0 hr 0 min 30 sec) 

Heartbeat CPU 0 instructions: 20000004 cycles: 8443878 heartbeat IPC: 1.77651 cumulative IPC: 1.77651 (Simulation time: 0 hr 1 min 17 sec) 
Heartbeat CPU 0 instructions: 30000004 cycles: 14068554 heartbeat IPC: 1.77788 cumulative IPC: 1.77719 (Simulation time: 0 hr 2 min 5 sec) 
Heartbeat CPU 0 instructions: 40000003 cycles: 19687550 heartbeat IPC: 1.77968 cumulative IPC: 1.77802 (Simulation time: 0 hr 2 min 51 sec) 
Heartbeat CPU 0 instructions: 50000004 cycles: 25354809 heartbeat IPC: 1.76452 cumulative IPC: 1.77463 (Simulation time: 0 hr 3 min 34 sec) 
Heartbeat CPU 0 instructions: 60000001 cycles: 31037135 heartbeat IPC: 1.75984 cumulative IPC: 1.77165 (Simulation time: 0 hr 4 min 18 sec) 
Heartbeat CPU 0 instructions: 70000000 cycles: 36677243 heartbeat IPC: 1.77302 cumulative IPC: 1.77188 (Simulation time: 0 hr 5 min 2 sec) 
Heartbeat CPU 0 instructions: 80000000 cycles: 42290883 heartbeat IPC: 1.78138 cumulative IPC: 1.77323 (Simulation time: 0 hr 5 min 45 sec) 
Heartbeat CPU 0 instructions: 90000003 cycles: 47953357 heartbeat IPC: 1.76601 cumulative IPC: 1.77232 (Simulation time: 0 hr 6 min 29 sec) 
Heartbeat CPU 0 instructions: 100000000 cycles: 53576278 heartbeat IPC: 1.77843 cumulative IPC: 1.773 (Simulation time: 0 hr 7 min 11 sec) 
Heartbeat CPU 0 instructions: 110000000 cycles: 59139534 heartbeat IPC: 1.79751 cumulative IPC: 1.77542 (Simulation time: 0 hr 8 min 0 sec) 
Finished CPU 0 instructions: 100000003 cycles: 56324672 cumulative IPC: 1.77542 (Simulation time: 0 hr 8 min 0 sec) 

ChampSim completed all CPUs

Region of Interest Statistics

CPU 0 cumulative IPC: 1.77542 instructions: 100000003 cycles: 56324672
cpu0_DTLB TOTAL     ACCESS:   16101732  HIT:   15018659  MISS:    1083073
cpu0_DTLB LOAD      ACCESS:   10874441  HIT:    9809127  MISS:    1065314
cpu0_DTLB RFO       ACCESS:    5227291  HIT:    5209532  MISS:      17759
cpu0_DTLB PREFETCH  ACCESS:          0  HIT:          0  MISS:          0
cpu0_DTLB WRITEBACK ACCESS:          0  HIT:          0  MISS:          0
cpu0_DTLB TRANSLATION ACCESS:          0  HIT:          0  MISS:          0
cpu0_DTLB PREFETCH  REQUESTED:          0  ISSUED:          0  USEFUL:          0  USELESS:          0
cpu0_DTLB AVERAGE MISS LATENCY: 10.4708 cycles
cpu0_ITLB TOTAL     ACCESS:    1805636  HIT:    1805636  MISS:          0
cpu0_ITLB LOAD      ACCESS:    1805636  HIT:    1805636  MISS:          0
cpu0_ITLB RFO       ACCESS:          0  HIT:          0  MISS:          0
cpu0_ITLB PREFETCH  ACCESS:          0  HIT:          0  MISS:          0
cpu0_ITLB WRITEBACK ACCESS:          0  HIT:          0  MISS:          0
cpu0_ITLB TRANSLATION ACCESS:          0  HIT:          0  MISS:          0
cpu0_ITLB PREFETCH  REQUESTED:          0  ISSUED:          0  USEFUL:          0  USELESS:          0
cpu0_ITLB AVERAGE MISS LATENCY: -nan cycles
cpu0_L1I TOTAL     ACCESS:    2750642  HIT:    2750642  MISS:          0
cpu0_L1I LOAD      ACCESS:    2750642  HIT:    2750642  MISS:          0
cpu0_L1I RFO       ACCESS:          0  HIT:          0  MISS:          0
cpu0_L1I PREFETCH  ACCESS:          0  HIT:          0  MISS:          0
cpu0_L1I WRITEBACK ACCESS:          0  HIT:          0  MISS:          0
cpu0_L1I TRANSLATION ACCESS:          0  HIT:          0  MISS:          0
cpu0_L1I PREFETCH  REQUESTED:          0  ISSUED:          0  USEFUL:          0  USELESS:          0
cpu0_L1I AVERAGE MISS LATENCY: -nan cycles
cpu0_STLB TOTAL     ACCESS:    1083073  HIT:    1076101  MISS:       6972
cpu0_STLB LOAD      ACCESS:    1065314  HIT:    1060395  MISS:       4919
cpu0_STLB RFO       ACCESS:      17759  HIT:      15706  MISS:       2053
cpu0_STLB PREFETCH  ACCESS:          0  HIT:          0  MISS:          0
cpu0_STLB WRITEBACK ACCESS:          0  HIT:          0  MISS:          0
cpu0_STLB TRANSLATION ACCESS:          0  HIT:          0  MISS:          0
cpu0_STLB PREFETCH  REQUESTED:          0  ISSUED:          0  USEFUL:          0  USELESS:          0
cpu0_STLB AVERAGE MISS LATENCY: 203.71 cycles
cpu0_L1D TOTAL     ACCESS:   18600916  HIT:   17940125  MISS:     660791
cpu0_L1D LOAD      ACCESS:   10915284  HIT:   10434549  MISS:     480735
cpu0_L1D RFO       ACCESS:    7678974  HIT:    7503555  MISS:     175419
cpu0_L1D PREFETCH  ACCESS:          0  HIT:          0  MISS:          0
cpu0_L1D WRITEBACK ACCESS:          0  HIT:          0  MISS:          0
cpu0_L1D TRANSLATION ACCESS:       6658  HIT:       2021  MISS:       4637
cpu0_L1D PREFETCH  REQUESTED:          0  ISSUED:          0  USEFUL:          0  USELESS:          0
cpu0_L1D AVERAGE MISS LATENCY: 138.103 cycles
cpu0_L2C TOTAL     ACCESS:     838861  HIT:     409945  MISS:     428916
cpu0_L2C LOAD      ACCESS:     480706  HIT:     197414  MISS:     283292
cpu0_L2C RFO       ACCESS:     175373  HIT:      34917  MISS:     140456
cpu0_L2C PREFETCH  ACCESS:          0  HIT:          0  MISS:          0
cpu0_L2C WRITEBACK ACCESS:     178145  HIT:     173211  MISS:       4934
cpu0_L2C TRANSLATION ACCESS:       4637  HIT:       4403  MISS:        234
cpu0_L2C PREFETCH  REQUESTED:          0  ISSUED:          0  USEFUL:          0  USELESS:          0
cpu0_L2C AVERAGE MISS LATENCY: 195.8 cycles
LLC TOTAL     ACCESS:     580532  HIT:     240756  MISS:     339776
LLC LOAD      ACCESS:     283292  HIT:      89115  MISS:     194177
LLC RFO       ACCESS:     140456  HIT:      64285  MISS:      76171
LLC PREFETCH  ACCESS:          0  HIT:          0  MISS:          0
LLC WRITEBACK ACCESS:     156550  HIT:      87124  MISS:      69426
LLC TRANSLATION ACCESS:        234  HIT:        232  MISS:          2
LLC PREFETCH  REQUESTED:          0  ISSUED:          0  USEFUL:          0  USELESS:          0
LLC AVERAGE MISS LATENCY: 220.964 cycles
Insertion Distribution: 
	LOAD 19907 0 37105 159374 
	RFO 461 0 11878 74238 
	PREF 0 0 0 0 
	WRITEBACK 0 0 0 69466 
	 0 0 24 2 
Total Prefetch Downgrades: 0

DRAM Statistics
 CHANNEL 0
 RQ ROW_BUFFER_HIT:      21057  ROW_BUFFER_MISS:     249293
 DBUS AVG_CONGESTED_CYCLE:    3.99165
 WQ ROW_BUFFER_HIT:       5718  ROW_BUFFER_MISS:      73491  FULL:          0


CPU 0 Branch Prediction Accuracy: 98.8423% MPKI: 0.45019 Average ROB Occupancy at Mispredict: 206.029
Branch type MPKI
BRANCH_DIRECT_JUMP: 0
BRANCH_INDIRECT: 0
BRANCH_CONDITIONAL: 0.45019
BRANCH_DIRECT_CALL: 0
BRANCH_INDIRECT_CALL: 0
BRANCH_RETURN: 0

