
*** ChampSim Multicore Out-of-Order Simulator ***

Warmup Instructions: 10000000
Simulation Instructions: 100000000
Number of CPUs: 1
Off-chip DRAM Size: 4 GiB Channels: 1 Width: 64-bit Data Rate: 3200 MT/s

VirtualMemory physical capacity: 8588881920 num_ppages: 2096895
VirtualMemory page size: 4096 log2_page_size: 12

CPU 0 runs /datasets/cs240c-wi22-a00-public/data/Assignment2/sphinx3_1339B.trace.xz
CPU 0 Bimodal branch predictor
Basic BTB sets: 1024 ways: 8 indirect buffer size: 4096 RAS size: 64
Initialize SRRIP state
Heartbeat CPU 0 instructions: 10000000 cycles: 2584401 heartbeat IPC: 3.86937 cumulative IPC: 3.86937 (Simulation time: 0 hr 0 min 26 sec) 

Warmup complete CPU 0 instructions: 10000004 cycles: 2584402 (Simulation time: 0 hr 0 min 26 sec) 

Heartbeat CPU 0 instructions: 20000003 cycles: 10261214 heartbeat IPC: 1.30262 cumulative IPC: 1.30262 (Simulation time: 0 hr 1 min 9 sec) 
Heartbeat CPU 0 instructions: 30000002 cycles: 17515660 heartbeat IPC: 1.37846 cumulative IPC: 1.33947 (Simulation time: 0 hr 1 min 49 sec) 
Heartbeat CPU 0 instructions: 40000002 cycles: 25527541 heartbeat IPC: 1.24815 cumulative IPC: 1.30758 (Simulation time: 0 hr 2 min 31 sec) 
Heartbeat CPU 0 instructions: 50000001 cycles: 33285885 heartbeat IPC: 1.28893 cumulative IPC: 1.30287 (Simulation time: 0 hr 3 min 11 sec) 
Heartbeat CPU 0 instructions: 60000003 cycles: 40944427 heartbeat IPC: 1.30573 cumulative IPC: 1.30344 (Simulation time: 0 hr 3 min 51 sec) 
Heartbeat CPU 0 instructions: 70000004 cycles: 48551308 heartbeat IPC: 1.3146 cumulative IPC: 1.30529 (Simulation time: 0 hr 4 min 30 sec) 
Heartbeat CPU 0 instructions: 80000000 cycles: 55881680 heartbeat IPC: 1.36419 cumulative IPC: 1.31339 (Simulation time: 0 hr 5 min 9 sec) 
Heartbeat CPU 0 instructions: 90000001 cycles: 63047712 heartbeat IPC: 1.39547 cumulative IPC: 1.32312 (Simulation time: 0 hr 5 min 48 sec) 
Heartbeat CPU 0 instructions: 100000002 cycles: 70477240 heartbeat IPC: 1.34598 cumulative IPC: 1.32562 (Simulation time: 0 hr 6 min 28 sec) 
Heartbeat CPU 0 instructions: 110000000 cycles: 78942600 heartbeat IPC: 1.18128 cumulative IPC: 1.30962 (Simulation time: 0 hr 7 min 10 sec) 
Finished CPU 0 instructions: 100000001 cycles: 76358199 cumulative IPC: 1.30962 (Simulation time: 0 hr 7 min 10 sec) 

ChampSim completed all CPUs

Region of Interest Statistics

CPU 0 cumulative IPC: 1.30962 instructions: 100000001 cycles: 76358199
cpu0_DTLB TOTAL     ACCESS:   16153397  HIT:   16044651  MISS:     108746
cpu0_DTLB LOAD      ACCESS:   14999471  HIT:   14896642  MISS:     102829
cpu0_DTLB RFO       ACCESS:    1153926  HIT:    1148009  MISS:       5917
cpu0_DTLB PREFETCH  ACCESS:          0  HIT:          0  MISS:          0
cpu0_DTLB WRITEBACK ACCESS:          0  HIT:          0  MISS:          0
cpu0_DTLB TRANSLATION ACCESS:          0  HIT:          0  MISS:          0
cpu0_DTLB PREFETCH  REQUESTED:          0  ISSUED:          0  USEFUL:          0  USELESS:          0
cpu0_DTLB AVERAGE MISS LATENCY: 13.2842 cycles
cpu0_ITLB TOTAL     ACCESS:    9591713  HIT:    9591671  MISS:         42
cpu0_ITLB LOAD      ACCESS:    9591713  HIT:    9591671  MISS:         42
cpu0_ITLB RFO       ACCESS:          0  HIT:          0  MISS:          0
cpu0_ITLB PREFETCH  ACCESS:          0  HIT:          0  MISS:          0
cpu0_ITLB WRITEBACK ACCESS:          0  HIT:          0  MISS:          0
cpu0_ITLB TRANSLATION ACCESS:          0  HIT:          0  MISS:          0
cpu0_ITLB PREFETCH  REQUESTED:          0  ISSUED:          0  USEFUL:          0  USELESS:          0
cpu0_ITLB AVERAGE MISS LATENCY: 122.881 cycles
cpu0_L1I TOTAL     ACCESS:     299303  HIT:     297732  MISS:       1571
cpu0_L1I LOAD      ACCESS:     299303  HIT:     297732  MISS:       1571
cpu0_L1I RFO       ACCESS:          0  HIT:          0  MISS:          0
cpu0_L1I PREFETCH  ACCESS:          0  HIT:          0  MISS:          0
cpu0_L1I WRITEBACK ACCESS:          0  HIT:          0  MISS:          0
cpu0_L1I TRANSLATION ACCESS:          0  HIT:          0  MISS:          0
cpu0_L1I PREFETCH  REQUESTED:          0  ISSUED:          0  USEFUL:          0  USELESS:          0
cpu0_L1I AVERAGE MISS LATENCY: 178.13 cycles
cpu0_STLB TOTAL     ACCESS:     108788  HIT:      69675  MISS:      39113
cpu0_STLB LOAD      ACCESS:     102871  HIT:      64831  MISS:      38040
cpu0_STLB RFO       ACCESS:       5917  HIT:       4844  MISS:       1073
cpu0_STLB PREFETCH  ACCESS:          0  HIT:          0  MISS:          0
cpu0_STLB WRITEBACK ACCESS:          0  HIT:          0  MISS:          0
cpu0_STLB TRANSLATION ACCESS:          0  HIT:          0  MISS:          0
cpu0_STLB PREFETCH  REQUESTED:          0  ISSUED:          0  USEFUL:          0  USELESS:          0
cpu0_STLB AVERAGE MISS LATENCY: 11.8885 cycles
cpu0_L1D TOTAL     ACCESS:   12039291  HIT:   10540103  MISS:    1499188
cpu0_L1D LOAD      ACCESS:   10238919  HIT:    8860832  MISS:    1378087
cpu0_L1D RFO       ACCESS:    1763419  HIT:    1642817  MISS:     120602
cpu0_L1D PREFETCH  ACCESS:          0  HIT:          0  MISS:          0
cpu0_L1D WRITEBACK ACCESS:          0  HIT:          0  MISS:          0
cpu0_L1D TRANSLATION ACCESS:      36953  HIT:      36454  MISS:        499
cpu0_L1D PREFETCH  REQUESTED:          0  ISSUED:          0  USEFUL:          0  USELESS:          0
cpu0_L1D AVERAGE MISS LATENCY: 85.3268 cycles
cpu0_L2C TOTAL     ACCESS:    1642874  HIT:     358321  MISS:    1284553
cpu0_L2C LOAD      ACCESS:    1379648  HIT:     204284  MISS:    1175364
cpu0_L2C RFO       ACCESS:     120600  HIT:      11965  MISS:     108635
cpu0_L2C PREFETCH  ACCESS:          0  HIT:          0  MISS:          0
cpu0_L2C WRITEBACK ACCESS:     142127  HIT:     141861  MISS:        266
cpu0_L2C TRANSLATION ACCESS:        499  HIT:        211  MISS:        288
cpu0_L2C PREFETCH  REQUESTED:          0  ISSUED:          0  USEFUL:          0  USELESS:          0
cpu0_L2C AVERAGE MISS LATENCY: 86.9108 cycles
LLC TOTAL     ACCESS:    1413665  HIT:     939982  MISS:     473683
LLC LOAD      ACCESS:    1175359  HIT:     715203  MISS:     460156
LLC RFO       ACCESS:     108635  HIT:     100596  MISS:       8039
LLC PREFETCH  ACCESS:          0  HIT:          0  MISS:          0
LLC WRITEBACK ACCESS:     129383  HIT:     123930  MISS:       5453
LLC TRANSLATION ACCESS:        288  HIT:        253  MISS:         35
LLC PREFETCH  REQUESTED:          0  ISSUED:          0  USEFUL:          0  USELESS:          0
LLC AVERAGE MISS LATENCY: 178.748 cycles
Insertion Distribution: 
	LOAD 14517 0 99502 432620 
	RFO 1504 0 7688 3751 
	PREF 0 0 0 0 
	WRITEBACK 0 0 0 5694 
	 4 0 19 32 
Total Prefetch Downgrades: 0

DRAM Statistics
 CHANNEL 0
 RQ ROW_BUFFER_HIT:      64095  ROW_BUFFER_MISS:     403996
 DBUS AVG_CONGESTED_CYCLE:    3.75617
 WQ ROW_BUFFER_HIT:       5888  ROW_BUFFER_MISS:       7507  FULL:          0


CPU 0 Branch Prediction Accuracy: 92.5867% MPKI: 6.65069 Average ROB Occupancy at Mispredict: 176.978
Branch type MPKI
BRANCH_DIRECT_JUMP: 0.00112
BRANCH_INDIRECT: 0
BRANCH_CONDITIONAL: 6.64811
BRANCH_DIRECT_CALL: 0.00071
BRANCH_INDIRECT_CALL: 3e-05
BRANCH_RETURN: 0.00072

