
*** ChampSim Multicore Out-of-Order Simulator ***

Warmup Instructions: 10000000
Simulation Instructions: 100000000
Number of CPUs: 1
Off-chip DRAM Size: 4 GiB Channels: 1 Width: 64-bit Data Rate: 3200 MT/s

VirtualMemory physical capacity: 8588881920 num_ppages: 2096895
VirtualMemory page size: 4096 log2_page_size: 12

CPU 0 runs /datasets/cs240c-wi22-a00-public/data/Assignment2/mcf_250B.trace.xz
CPU 0 Bimodal branch predictor
Basic BTB sets: 1024 ways: 8 indirect buffer size: 4096 RAS size: 64
Initialize SRRIP state
Heartbeat CPU 0 instructions: 10000004 cycles: 3834312 heartbeat IPC: 2.60803 cumulative IPC: 2.60803 (Simulation time: 0 hr 0 min 45 sec) 

Warmup complete CPU 0 instructions: 10000004 cycles: 3834312 (Simulation time: 0 hr 0 min 45 sec) 

Heartbeat CPU 0 instructions: 20000000 cycles: 152546368 heartbeat IPC: 0.067244 cumulative IPC: 0.067244 (Simulation time: 0 hr 4 min 29 sec) 
Heartbeat CPU 0 instructions: 30000000 cycles: 290094621 heartbeat IPC: 0.0727018 cumulative IPC: 0.0698665 (Simulation time: 0 hr 8 min 16 sec) 
Heartbeat CPU 0 instructions: 40000000 cycles: 436498867 heartbeat IPC: 0.068304 cumulative IPC: 0.0693378 (Simulation time: 0 hr 12 min 11 sec) 
Heartbeat CPU 0 instructions: 50000000 cycles: 577809245 heartbeat IPC: 0.0707662 cumulative IPC: 0.0696894 (Simulation time: 0 hr 15 min 59 sec) 
Heartbeat CPU 0 instructions: 60000000 cycles: 719476994 heartbeat IPC: 0.0705877 cumulative IPC: 0.0698673 (Simulation time: 0 hr 19 min 54 sec) 
Heartbeat CPU 0 instructions: 70000000 cycles: 852508289 heartbeat IPC: 0.0751703 cumulative IPC: 0.0706985 (Simulation time: 0 hr 23 min 40 sec) 
Heartbeat CPU 0 instructions: 80000000 cycles: 994937104 heartbeat IPC: 0.0702105 cumulative IPC: 0.0706284 (Simulation time: 0 hr 27 min 42 sec) 
Heartbeat CPU 0 instructions: 90000000 cycles: 1116893996 heartbeat IPC: 0.0819962 cumulative IPC: 0.0718739 (Simulation time: 0 hr 31 min 14 sec) 
Heartbeat CPU 0 instructions: 100000000 cycles: 1255999546 heartbeat IPC: 0.0718879 cumulative IPC: 0.0718755 (Simulation time: 0 hr 35 min 4 sec) 
Heartbeat CPU 0 instructions: 110000000 cycles: 1398600433 heartbeat IPC: 0.0701258 cumulative IPC: 0.0716966 (Simulation time: 0 hr 38 min 59 sec) 
Finished CPU 0 instructions: 100000000 cycles: 1394766132 cumulative IPC: 0.0716966 (Simulation time: 0 hr 38 min 59 sec) 

ChampSim completed all CPUs

Region of Interest Statistics

CPU 0 cumulative IPC: 0.0716966 instructions: 100000000 cycles: 1394766132
cpu0_DTLB TOTAL     ACCESS:   20766798  HIT:    2976510  MISS:   17790288
cpu0_DTLB LOAD      ACCESS:   20271823  HIT:    2537425  MISS:   17734398
cpu0_DTLB RFO       ACCESS:     494975  HIT:     439085  MISS:      55890
cpu0_DTLB PREFETCH  ACCESS:          0  HIT:          0  MISS:          0
cpu0_DTLB WRITEBACK ACCESS:          0  HIT:          0  MISS:          0
cpu0_DTLB TRANSLATION ACCESS:          0  HIT:          0  MISS:          0
cpu0_DTLB PREFETCH  REQUESTED:          0  ISSUED:          0  USEFUL:          0  USELESS:          0
cpu0_DTLB AVERAGE MISS LATENCY: 10.5141 cycles
cpu0_ITLB TOTAL     ACCESS:   11315929  HIT:   11315929  MISS:          0
cpu0_ITLB LOAD      ACCESS:   11315929  HIT:   11315929  MISS:          0
cpu0_ITLB RFO       ACCESS:          0  HIT:          0  MISS:          0
cpu0_ITLB PREFETCH  ACCESS:          0  HIT:          0  MISS:          0
cpu0_ITLB WRITEBACK ACCESS:          0  HIT:          0  MISS:          0
cpu0_ITLB TRANSLATION ACCESS:          0  HIT:          0  MISS:          0
cpu0_ITLB PREFETCH  REQUESTED:          0  ISSUED:          0  USEFUL:          0  USELESS:          0
cpu0_ITLB AVERAGE MISS LATENCY: -nan cycles
cpu0_L1I TOTAL     ACCESS:          4  HIT:          4  MISS:          0
cpu0_L1I LOAD      ACCESS:          4  HIT:          4  MISS:          0
cpu0_L1I RFO       ACCESS:          0  HIT:          0  MISS:          0
cpu0_L1I PREFETCH  ACCESS:          0  HIT:          0  MISS:          0
cpu0_L1I WRITEBACK ACCESS:          0  HIT:          0  MISS:          0
cpu0_L1I TRANSLATION ACCESS:          0  HIT:          0  MISS:          0
cpu0_L1I PREFETCH  REQUESTED:          0  ISSUED:          0  USEFUL:          0  USELESS:          0
cpu0_L1I AVERAGE MISS LATENCY: -nan cycles
cpu0_STLB TOTAL     ACCESS:   17790288  HIT:   17413133  MISS:     377155
cpu0_STLB LOAD      ACCESS:   17734398  HIT:   17359380  MISS:     375018
cpu0_STLB RFO       ACCESS:      55890  HIT:      53753  MISS:       2137
cpu0_STLB PREFETCH  ACCESS:          0  HIT:          0  MISS:          0
cpu0_STLB WRITEBACK ACCESS:          0  HIT:          0  MISS:          0
cpu0_STLB TRANSLATION ACCESS:          0  HIT:          0  MISS:          0
cpu0_STLB PREFETCH  REQUESTED:          0  ISSUED:          0  USEFUL:          0  USELESS:          0
cpu0_STLB AVERAGE MISS LATENCY: 71.389 cycles
cpu0_L1D TOTAL     ACCESS:   21385059  HIT:    3441176  MISS:   17943883
cpu0_L1D LOAD      ACCESS:   20344240  HIT:    2560285  MISS:   17783955
cpu0_L1D RFO       ACCESS:     664708  HIT:     633048  MISS:      31660
cpu0_L1D PREFETCH  ACCESS:          0  HIT:          0  MISS:          0
cpu0_L1D WRITEBACK ACCESS:          0  HIT:          0  MISS:          0
cpu0_L1D TRANSLATION ACCESS:     376111  HIT:     247843  MISS:     128268
cpu0_L1D PREFETCH  REQUESTED:          0  ISSUED:          0  USEFUL:          0  USELESS:          0
cpu0_L1D AVERAGE MISS LATENCY: 230.074 cycles
cpu0_L2C TOTAL     ACCESS:   18302902  HIT:    5792706  MISS:   12510196
cpu0_L2C LOAD      ACCESS:   17783926  HIT:    5386637  MISS:   12397289
cpu0_L2C RFO       ACCESS:      31659  HIT:       9148  MISS:      22511
cpu0_L2C PREFETCH  ACCESS:          0  HIT:          0  MISS:          0
cpu0_L2C WRITEBACK ACCESS:     359049  HIT:     359047  MISS:          2
cpu0_L2C TRANSLATION ACCESS:     128268  HIT:      37874  MISS:      90394
cpu0_L2C PREFETCH  REQUESTED:          0  ISSUED:          0  USEFUL:          0  USELESS:          0
cpu0_L2C AVERAGE MISS LATENCY: 314.215 cycles
LLC TOTAL     ACCESS:   12800544  HIT:    5820193  MISS:    6980351
LLC LOAD      ACCESS:   12397289  HIT:    5540762  MISS:    6856527
LLC RFO       ACCESS:      22511  HIT:      14270  MISS:       8241
LLC PREFETCH  ACCESS:          0  HIT:          0  MISS:          0
LLC WRITEBACK ACCESS:     290350  HIT:     181130  MISS:     109220
LLC TRANSLATION ACCESS:      90394  HIT:      84031  MISS:       6363
LLC PREFETCH  REQUESTED:          0  ISSUED:          0  USEFUL:          0  USELESS:          0
LLC AVERAGE MISS LATENCY: 525.501 cycles
Insertion Distribution: 
	LOAD 125320 0 191933 7485665 
	RFO 1461 0 10052 709 
	PREF 0 0 0 0 
	WRITEBACK 0 0 0 151399 
	 3 0 185 6346 
Total Prefetch Downgrades: 0

DRAM Statistics
 CHANNEL 0
 RQ ROW_BUFFER_HIT:       3747  ROW_BUFFER_MISS:    6867250
 DBUS AVG_CONGESTED_CYCLE:    3.97179
 WQ ROW_BUFFER_HIT:      10705  ROW_BUFFER_MISS:     166923  FULL:          0


CPU 0 Branch Prediction Accuracy: 91.6559% MPKI: 25.5287 Average ROB Occupancy at Mispredict: 24.4857
Branch type MPKI
BRANCH_DIRECT_JUMP: 2e-05
BRANCH_INDIRECT: 0
BRANCH_CONDITIONAL: 25.5287
BRANCH_DIRECT_CALL: 0
BRANCH_INDIRECT_CALL: 0
BRANCH_RETURN: 0

