
*** ChampSim Multicore Out-of-Order Simulator ***

Warmup Instructions: 10000000
Simulation Instructions: 100000000
Number of CPUs: 1
Off-chip DRAM Size: 4 GiB Channels: 1 Width: 64-bit Data Rate: 3200 MT/s

VirtualMemory physical capacity: 8588881920 num_ppages: 2096895
VirtualMemory page size: 4096 log2_page_size: 12

CPU 0 runs /datasets/cs240c-wi22-a00-public/data/Assignment2/soplex_217B.trace.xz
CPU 0 Bimodal branch predictor
Basic BTB sets: 1024 ways: 8 indirect buffer size: 4096 RAS size: 64
Initialize SRRIP state
Heartbeat CPU 0 instructions: 10000000 cycles: 2844432 heartbeat IPC: 3.51564 cumulative IPC: 3.51564 (Simulation time: 0 hr 0 min 32 sec) 

Warmup complete CPU 0 instructions: 10000004 cycles: 2844433 (Simulation time: 0 hr 0 min 32 sec) 

Heartbeat CPU 0 instructions: 20000000 cycles: 35108814 heartbeat IPC: 0.309939 cumulative IPC: 0.309939 (Simulation time: 0 hr 2 min 8 sec) 
Heartbeat CPU 0 instructions: 30000004 cycles: 65329583 heartbeat IPC: 0.330898 cumulative IPC: 0.320076 (Simulation time: 0 hr 3 min 48 sec) 
Heartbeat CPU 0 instructions: 40000003 cycles: 96390615 heartbeat IPC: 0.321947 cumulative IPC: 0.320697 (Simulation time: 0 hr 5 min 24 sec) 
Heartbeat CPU 0 instructions: 50000000 cycles: 126454835 heartbeat IPC: 0.332621 cumulative IPC: 0.323597 (Simulation time: 0 hr 7 min 4 sec) 
Heartbeat CPU 0 instructions: 60000002 cycles: 156881648 heartbeat IPC: 0.328658 cumulative IPC: 0.324597 (Simulation time: 0 hr 8 min 42 sec) 
Heartbeat CPU 0 instructions: 70000000 cycles: 202096418 heartbeat IPC: 0.221167 cumulative IPC: 0.301126 (Simulation time: 0 hr 11 min 3 sec) 
Heartbeat CPU 0 instructions: 80000000 cycles: 234885015 heartbeat IPC: 0.304984 cumulative IPC: 0.301671 (Simulation time: 0 hr 12 min 32 sec) 
Heartbeat CPU 0 instructions: 90000002 cycles: 265264799 heartbeat IPC: 0.329166 cumulative IPC: 0.304854 (Simulation time: 0 hr 14 min 13 sec) 
Heartbeat CPU 0 instructions: 100000003 cycles: 297046563 heartbeat IPC: 0.314646 cumulative IPC: 0.305912 (Simulation time: 0 hr 15 min 58 sec) 
Heartbeat CPU 0 instructions: 110000000 cycles: 327117159 heartbeat IPC: 0.332551 cumulative IPC: 0.308382 (Simulation time: 0 hr 17 min 25 sec) 
Finished CPU 0 instructions: 100000000 cycles: 324272728 cumulative IPC: 0.308382 (Simulation time: 0 hr 17 min 25 sec) 

ChampSim completed all CPUs

Region of Interest Statistics

CPU 0 cumulative IPC: 0.308382 instructions: 100000000 cycles: 324272728
cpu0_DTLB TOTAL     ACCESS:   21912434  HIT:   21047235  MISS:     865199
cpu0_DTLB LOAD      ACCESS:   16741470  HIT:   16056676  MISS:     684794
cpu0_DTLB RFO       ACCESS:    5170964  HIT:    4990559  MISS:     180405
cpu0_DTLB PREFETCH  ACCESS:          0  HIT:          0  MISS:          0
cpu0_DTLB WRITEBACK ACCESS:          0  HIT:          0  MISS:          0
cpu0_DTLB TRANSLATION ACCESS:          0  HIT:          0  MISS:          0
cpu0_DTLB PREFETCH  REQUESTED:          0  ISSUED:          0  USEFUL:          0  USELESS:          0
cpu0_DTLB AVERAGE MISS LATENCY: 14.3212 cycles
cpu0_ITLB TOTAL     ACCESS:    8430726  HIT:    8430708  MISS:         18
cpu0_ITLB LOAD      ACCESS:    8430726  HIT:    8430708  MISS:         18
cpu0_ITLB RFO       ACCESS:          0  HIT:          0  MISS:          0
cpu0_ITLB PREFETCH  ACCESS:          0  HIT:          0  MISS:          0
cpu0_ITLB WRITEBACK ACCESS:          0  HIT:          0  MISS:          0
cpu0_ITLB TRANSLATION ACCESS:          0  HIT:          0  MISS:          0
cpu0_ITLB PREFETCH  REQUESTED:          0  ISSUED:          0  USEFUL:          0  USELESS:          0
cpu0_ITLB AVERAGE MISS LATENCY: 279.778 cycles
cpu0_L1I TOTAL     ACCESS:     355436  HIT:     354783  MISS:        653
cpu0_L1I LOAD      ACCESS:     355436  HIT:     354783  MISS:        653
cpu0_L1I RFO       ACCESS:          0  HIT:          0  MISS:          0
cpu0_L1I PREFETCH  ACCESS:          0  HIT:          0  MISS:          0
cpu0_L1I WRITEBACK ACCESS:          0  HIT:          0  MISS:          0
cpu0_L1I TRANSLATION ACCESS:          0  HIT:          0  MISS:          0
cpu0_L1I PREFETCH  REQUESTED:          0  ISSUED:          0  USEFUL:          0  USELESS:          0
cpu0_L1I AVERAGE MISS LATENCY: 310.366 cycles
cpu0_STLB TOTAL     ACCESS:     865217  HIT:     741702  MISS:     123515
cpu0_STLB LOAD      ACCESS:     684812  HIT:     570650  MISS:     114162
cpu0_STLB RFO       ACCESS:     180405  HIT:     171052  MISS:       9353
cpu0_STLB PREFETCH  ACCESS:          0  HIT:          0  MISS:          0
cpu0_STLB WRITEBACK ACCESS:          0  HIT:          0  MISS:          0
cpu0_STLB TRANSLATION ACCESS:          0  HIT:          0  MISS:          0
cpu0_STLB PREFETCH  REQUESTED:          0  ISSUED:          0  USEFUL:          0  USELESS:          0
cpu0_STLB AVERAGE MISS LATENCY: 36.145 cycles
cpu0_L1D TOTAL     ACCESS:   18187627  HIT:   12363685  MISS:    5823942
cpu0_L1D LOAD      ACCESS:   12241268  HIT:    7246984  MISS:    4994284
cpu0_L1D RFO       ACCESS:    5826404  HIT:    5001759  MISS:     824645
cpu0_L1D PREFETCH  ACCESS:          0  HIT:          0  MISS:          0
cpu0_L1D WRITEBACK ACCESS:          0  HIT:          0  MISS:          0
cpu0_L1D TRANSLATION ACCESS:     119955  HIT:     114942  MISS:       5013
cpu0_L1D PREFETCH  REQUESTED:          0  ISSUED:          0  USEFUL:          0  USELESS:          0
cpu0_L1D AVERAGE MISS LATENCY: 201.919 cycles
cpu0_L2C TOTAL     ACCESS:    8411755  HIT:    3954454  MISS:    4457301
cpu0_L2C LOAD      ACCESS:    4994411  HIT:    1232073  MISS:    3762338
cpu0_L2C RFO       ACCESS:     824582  HIT:     130473  MISS:     694109
cpu0_L2C PREFETCH  ACCESS:          0  HIT:          0  MISS:          0
cpu0_L2C WRITEBACK ACCESS:    2587749  HIT:    2587646  MISS:        103
cpu0_L2C TRANSLATION ACCESS:       5013  HIT:       4262  MISS:        751
cpu0_L2C PREFETCH  REQUESTED:          0  ISSUED:          0  USEFUL:          0  USELESS:          0
cpu0_L2C AVERAGE MISS LATENCY: 249.263 cycles
LLC TOTAL     ACCESS:    6308140  HIT:    2839046  MISS:    3469094
LLC LOAD      ACCESS:    3762321  HIT:    1354892  MISS:    2407429
LLC RFO       ACCESS:     694106  HIT:     274914  MISS:     419192
LLC PREFETCH  ACCESS:          0  HIT:          0  MISS:          0
LLC WRITEBACK ACCESS:    1850962  HIT:    1208792  MISS:     642170
LLC TRANSLATION ACCESS:        751  HIT:        448  MISS:        303
LLC PREFETCH  REQUESTED:          0  ISSUED:          0  USEFUL:          0  USELESS:          0
LLC AVERAGE MISS LATENCY: 293.113 cycles
Insertion Distribution: 
	LOAD 0 0 564596 2112303 
	RFO 0 0 183182 285569 
	PREF 0 0 0 0 
	WRITEBACK 0 0 0 709695 
	 0 0 144 214 
Total Prefetch Downgrades: 0

DRAM Statistics
 CHANNEL 0
 RQ ROW_BUFFER_HIT:     370254  ROW_BUFFER_MISS:    2454519
 DBUS AVG_CONGESTED_CYCLE:    3.95083
 WQ ROW_BUFFER_HIT:      50637  ROW_BUFFER_MISS:     933898  FULL:     298063


CPU 0 Branch Prediction Accuracy: 93.2069% MPKI: 14.28 Average ROB Occupancy at Mispredict: 50.0043
Branch type MPKI
BRANCH_DIRECT_JUMP: 0.00099
BRANCH_INDIRECT: 0.00023
BRANCH_CONDITIONAL: 14.2767
BRANCH_DIRECT_CALL: 0.00062
BRANCH_INDIRECT_CALL: 0.00054
BRANCH_RETURN: 0.00093

