
*** ChampSim Multicore Out-of-Order Simulator ***

Warmup Instructions: 10000000
Simulation Instructions: 100000000
Number of CPUs: 1
Off-chip DRAM Size: 4 GiB Channels: 1 Width: 64-bit Data Rate: 3200 MT/s

VirtualMemory physical capacity: 8588881920 num_ppages: 2096895
VirtualMemory page size: 4096 log2_page_size: 12

CPU 0 runs /datasets/cs240c-wi22-a00-public/data/Assignment2/omnetpp_340B.trace.xz
CPU 0 Bimodal branch predictor
Basic BTB sets: 1024 ways: 8 indirect buffer size: 4096 RAS size: 64
Initialize SRRIP state
Heartbeat CPU 0 instructions: 10000002 cycles: 2500207 heartbeat IPC: 3.99967 cumulative IPC: 3.99967 (Simulation time: 0 hr 0 min 37 sec) 

Warmup complete CPU 0 instructions: 10000002 cycles: 2500207 (Simulation time: 0 hr 0 min 37 sec) 

Heartbeat CPU 0 instructions: 20000000 cycles: 27102984 heartbeat IPC: 0.406458 cumulative IPC: 0.406458 (Simulation time: 0 hr 1 min 58 sec) 
Heartbeat CPU 0 instructions: 30000002 cycles: 51769275 heartbeat IPC: 0.405412 cumulative IPC: 0.405934 (Simulation time: 0 hr 3 min 19 sec) 
Heartbeat CPU 0 instructions: 40000000 cycles: 76379551 heartbeat IPC: 0.406334 cumulative IPC: 0.406067 (Simulation time: 0 hr 4 min 40 sec) 
Heartbeat CPU 0 instructions: 50000002 cycles: 102131300 heartbeat IPC: 0.388323 cumulative IPC: 0.401481 (Simulation time: 0 hr 5 min 59 sec) 
Heartbeat CPU 0 instructions: 60000001 cycles: 128620776 heartbeat IPC: 0.377508 cumulative IPC: 0.396446 (Simulation time: 0 hr 7 min 26 sec) 
Heartbeat CPU 0 instructions: 70000003 cycles: 154916338 heartbeat IPC: 0.380292 cumulative IPC: 0.393659 (Simulation time: 0 hr 8 min 45 sec) 
Heartbeat CPU 0 instructions: 80000003 cycles: 181476282 heartbeat IPC: 0.376507 cumulative IPC: 0.391114 (Simulation time: 0 hr 10 min 13 sec) 
Heartbeat CPU 0 instructions: 90000000 cycles: 208442638 heartbeat IPC: 0.370832 cumulative IPC: 0.388458 (Simulation time: 0 hr 11 min 37 sec) 
Heartbeat CPU 0 instructions: 100000002 cycles: 235003379 heartbeat IPC: 0.376496 cumulative IPC: 0.387091 (Simulation time: 0 hr 13 min 5 sec) 
Heartbeat CPU 0 instructions: 110000000 cycles: 259869908 heartbeat IPC: 0.402147 cumulative IPC: 0.388546 (Simulation time: 0 hr 14 min 28 sec) 
Finished CPU 0 instructions: 100000000 cycles: 257369703 cumulative IPC: 0.388546 (Simulation time: 0 hr 14 min 28 sec) 

ChampSim completed all CPUs

Region of Interest Statistics

CPU 0 cumulative IPC: 0.388546 instructions: 100000000 cycles: 257369703
cpu0_DTLB TOTAL     ACCESS:   23848721  HIT:   21951612  MISS:    1897109
cpu0_DTLB LOAD      ACCESS:   13881295  HIT:   12300047  MISS:    1581248
cpu0_DTLB RFO       ACCESS:    9967426  HIT:    9651565  MISS:     315861
cpu0_DTLB PREFETCH  ACCESS:          0  HIT:          0  MISS:          0
cpu0_DTLB WRITEBACK ACCESS:          0  HIT:          0  MISS:          0
cpu0_DTLB TRANSLATION ACCESS:          0  HIT:          0  MISS:          0
cpu0_DTLB PREFETCH  REQUESTED:          0  ISSUED:          0  USEFUL:          0  USELESS:          0
cpu0_DTLB AVERAGE MISS LATENCY: 13.139 cycles
cpu0_ITLB TOTAL     ACCESS:   11128644  HIT:   11093277  MISS:      35367
cpu0_ITLB LOAD      ACCESS:   11128644  HIT:   11093277  MISS:      35367
cpu0_ITLB RFO       ACCESS:          0  HIT:          0  MISS:          0
cpu0_ITLB PREFETCH  ACCESS:          0  HIT:          0  MISS:          0
cpu0_ITLB WRITEBACK ACCESS:          0  HIT:          0  MISS:          0
cpu0_ITLB TRANSLATION ACCESS:          0  HIT:          0  MISS:          0
cpu0_ITLB PREFETCH  REQUESTED:          0  ISSUED:          0  USEFUL:          0  USELESS:          0
cpu0_ITLB AVERAGE MISS LATENCY: 9.25733 cycles
cpu0_L1I TOTAL     ACCESS:    8346660  HIT:    8340311  MISS:       6349
cpu0_L1I LOAD      ACCESS:    8346660  HIT:    8340311  MISS:       6349
cpu0_L1I RFO       ACCESS:          0  HIT:          0  MISS:          0
cpu0_L1I PREFETCH  ACCESS:          0  HIT:          0  MISS:          0
cpu0_L1I WRITEBACK ACCESS:          0  HIT:          0  MISS:          0
cpu0_L1I TRANSLATION ACCESS:          0  HIT:          0  MISS:          0
cpu0_L1I PREFETCH  REQUESTED:          0  ISSUED:          0  USEFUL:          0  USELESS:          0
cpu0_L1I AVERAGE MISS LATENCY: 55.3662 cycles
cpu0_STLB TOTAL     ACCESS:    1932476  HIT:    1457282  MISS:     475194
cpu0_STLB LOAD      ACCESS:    1616615  HIT:    1262679  MISS:     353936
cpu0_STLB RFO       ACCESS:     315861  HIT:     194603  MISS:     121258
cpu0_STLB PREFETCH  ACCESS:          0  HIT:          0  MISS:          0
cpu0_STLB WRITEBACK ACCESS:          0  HIT:          0  MISS:          0
cpu0_STLB TRANSLATION ACCESS:          0  HIT:          0  MISS:          0
cpu0_STLB PREFETCH  REQUESTED:          0  ISSUED:          0  USEFUL:          0  USELESS:          0
cpu0_STLB AVERAGE MISS LATENCY: 16.0723 cycles
cpu0_L1D TOTAL     ACCESS:   31452496  HIT:   28954584  MISS:    2497912
cpu0_L1D LOAD      ACCESS:   15712462  HIT:   13529470  MISS:    2182992
cpu0_L1D RFO       ACCESS:   15299615  HIT:   14989198  MISS:     310417
cpu0_L1D PREFETCH  ACCESS:          0  HIT:          0  MISS:          0
cpu0_L1D WRITEBACK ACCESS:          0  HIT:          0  MISS:          0
cpu0_L1D TRANSLATION ACCESS:     440419  HIT:     435916  MISS:       4503
cpu0_L1D PREFETCH  REQUESTED:          0  ISSUED:          0  USEFUL:          0  USELESS:          0
cpu0_L1D AVERAGE MISS LATENCY: 144.979 cycles
cpu0_L2C TOTAL     ACCESS:    3581294  HIT:    1431302  MISS:    2149992
cpu0_L2C LOAD      ACCESS:    2189302  HIT:     330931  MISS:    1858371
cpu0_L2C RFO       ACCESS:     310417  HIT:      22166  MISS:     288251
cpu0_L2C PREFETCH  ACCESS:          0  HIT:          0  MISS:          0
cpu0_L2C WRITEBACK ACCESS:    1077072  HIT:    1074800  MISS:       2272
cpu0_L2C TRANSLATION ACCESS:       4503  HIT:       3405  MISS:       1098
cpu0_L2C PREFETCH  REQUESTED:          0  ISSUED:          0  USEFUL:          0  USELESS:          0
cpu0_L2C AVERAGE MISS LATENCY: 155.633 cycles
LLC TOTAL     ACCESS:    3078988  HIT:     936189  MISS:    2142799
LLC LOAD      ACCESS:    1858370  HIT:     404876  MISS:    1453494
LLC RFO       ACCESS:     288251  HIT:      71937  MISS:     216314
LLC PREFETCH  ACCESS:          0  HIT:          0  MISS:          0
LLC WRITEBACK ACCESS:     931269  HIT:     458489  MISS:     472780
LLC TRANSLATION ACCESS:       1098  HIT:        887  MISS:        211
LLC PREFETCH  REQUESTED:          0  ISSUED:          0  USEFUL:          0  USELESS:          0
LLC AVERAGE MISS LATENCY: 135.108 cycles
Insertion Distribution: 
	LOAD 119278 0 0 0 0 0 0 0 0 0 0 0 0 0 141276 1344058 
	RFO 39434 0 0 0 0 0 0 0 0 0 0 0 0 0 65046 134355 
	PREF 0 0 0 0 0 0 0 0 0 0 0 0 0 0 0 0 
	WRITEBACK 0 0 0 0 0 0 0 0 0 0 0 0 0 0 0 504402 
	 7 0 0 0 0 0 0 0 0 0 0 0 0 0 43 187 
Total Prefetch Downgrades: 0

DRAM Statistics
 CHANNEL 0
 RQ ROW_BUFFER_HIT:     101198  ROW_BUFFER_MISS:    1568701
 DBUS AVG_CONGESTED_CYCLE:    3.91879
 WQ ROW_BUFFER_HIT:     171783  ROW_BUFFER_MISS:     484607  FULL:          0


CPU 0 Branch Prediction Accuracy: 94.4212% MPKI: 13.4017 Average ROB Occupancy at Mispredict: 52.4804
Branch type MPKI
BRANCH_DIRECT_JUMP: 0.00017
BRANCH_INDIRECT: 0.04543
BRANCH_CONDITIONAL: 13.2857
BRANCH_DIRECT_CALL: 8e-05
BRANCH_INDIRECT_CALL: 0.04734
BRANCH_RETURN: 0.02301

