
*** ChampSim Multicore Out-of-Order Simulator ***

Warmup Instructions: 10000000
Simulation Instructions: 100000000
Number of CPUs: 1
Off-chip DRAM Size: 4 GiB Channels: 1 Width: 64-bit Data Rate: 3200 MT/s

VirtualMemory physical capacity: 8588881920 num_ppages: 2096895
VirtualMemory page size: 4096 log2_page_size: 12

CPU 0 runs /datasets/cs240c-wi22-a00-public/data/Assignment2/omnetpp_17B.trace.xz
CPU 0 Bimodal branch predictor
Basic BTB sets: 1024 ways: 8 indirect buffer size: 4096 RAS size: 64
Initialize SRRIP state
Heartbeat CPU 0 instructions: 10000002 cycles: 2500125 heartbeat IPC: 3.9998 cumulative IPC: 3.9998 (Simulation time: 0 hr 0 min 24 sec) 

Warmup complete CPU 0 instructions: 10000002 cycles: 2500125 (Simulation time: 0 hr 0 min 24 sec) 

Heartbeat CPU 0 instructions: 20000003 cycles: 8087079 heartbeat IPC: 1.78988 cumulative IPC: 1.78988 (Simulation time: 0 hr 0 min 52 sec) 
Heartbeat CPU 0 instructions: 30000000 cycles: 14673500 heartbeat IPC: 1.51827 cumulative IPC: 1.64293 (Simulation time: 0 hr 1 min 31 sec) 
Heartbeat CPU 0 instructions: 40000001 cycles: 21481270 heartbeat IPC: 1.46891 cumulative IPC: 1.58052 (Simulation time: 0 hr 2 min 14 sec) 
Heartbeat CPU 0 instructions: 50000001 cycles: 27374204 heartbeat IPC: 1.69695 cumulative IPC: 1.6081 (Simulation time: 0 hr 2 min 47 sec) 
Heartbeat CPU 0 instructions: 60000001 cycles: 33345552 heartbeat IPC: 1.67466 cumulative IPC: 1.62099 (Simulation time: 0 hr 3 min 18 sec) 
Heartbeat CPU 0 instructions: 70000000 cycles: 40106032 heartbeat IPC: 1.47918 cumulative IPC: 1.59549 (Simulation time: 0 hr 3 min 59 sec) 
Heartbeat CPU 0 instructions: 80000002 cycles: 46889788 heartbeat IPC: 1.47411 cumulative IPC: 1.57694 (Simulation time: 0 hr 4 min 36 sec) 
Heartbeat CPU 0 instructions: 90000003 cycles: 53665568 heartbeat IPC: 1.47584 cumulative IPC: 1.56356 (Simulation time: 0 hr 5 min 16 sec) 
Heartbeat CPU 0 instructions: 100000002 cycles: 59013453 heartbeat IPC: 1.8699 cumulative IPC: 1.59254 (Simulation time: 0 hr 5 min 40 sec) 
Heartbeat CPU 0 instructions: 110000001 cycles: 65677986 heartbeat IPC: 1.50048 cumulative IPC: 1.58283 (Simulation time: 0 hr 6 min 20 sec) 
Finished CPU 0 instructions: 100000004 cycles: 63177868 cumulative IPC: 1.58283 (Simulation time: 0 hr 6 min 20 sec) 

ChampSim completed all CPUs

Region of Interest Statistics

CPU 0 cumulative IPC: 1.58283 instructions: 100000004 cycles: 63177868
cpu0_DTLB TOTAL     ACCESS:   10151917  HIT:    9087111  MISS:    1064806
cpu0_DTLB LOAD      ACCESS:    8214598  HIT:    7151672  MISS:    1062926
cpu0_DTLB RFO       ACCESS:    1937319  HIT:    1935439  MISS:       1880
cpu0_DTLB PREFETCH  ACCESS:          0  HIT:          0  MISS:          0
cpu0_DTLB WRITEBACK ACCESS:          0  HIT:          0  MISS:          0
cpu0_DTLB TRANSLATION ACCESS:          0  HIT:          0  MISS:          0
cpu0_DTLB PREFETCH  REQUESTED:          0  ISSUED:          0  USEFUL:          0  USELESS:          0
cpu0_DTLB AVERAGE MISS LATENCY: 17.677 cycles
cpu0_ITLB TOTAL     ACCESS:    8332932  HIT:    8330875  MISS:       2057
cpu0_ITLB LOAD      ACCESS:    8332932  HIT:    8330875  MISS:       2057
cpu0_ITLB RFO       ACCESS:          0  HIT:          0  MISS:          0
cpu0_ITLB PREFETCH  ACCESS:          0  HIT:          0  MISS:          0
cpu0_ITLB WRITEBACK ACCESS:          0  HIT:          0  MISS:          0
cpu0_ITLB TRANSLATION ACCESS:          0  HIT:          0  MISS:          0
cpu0_ITLB PREFETCH  REQUESTED:          0  ISSUED:          0  USEFUL:          0  USELESS:          0
cpu0_ITLB AVERAGE MISS LATENCY: 15.6315 cycles
cpu0_L1I TOTAL     ACCESS:    1054776  HIT:    1050437  MISS:       4339
cpu0_L1I LOAD      ACCESS:    1054776  HIT:    1050437  MISS:       4339
cpu0_L1I RFO       ACCESS:          0  HIT:          0  MISS:          0
cpu0_L1I PREFETCH  ACCESS:          0  HIT:          0  MISS:          0
cpu0_L1I WRITEBACK ACCESS:          0  HIT:          0  MISS:          0
cpu0_L1I TRANSLATION ACCESS:          0  HIT:          0  MISS:          0
cpu0_L1I PREFETCH  REQUESTED:          0  ISSUED:          0  USEFUL:          0  USELESS:          0
cpu0_L1I AVERAGE MISS LATENCY: 53.2708 cycles
cpu0_STLB TOTAL     ACCESS:    1066863  HIT:      12748  MISS:    1054115
cpu0_STLB LOAD      ACCESS:    1064983  HIT:      11384  MISS:    1053599
cpu0_STLB RFO       ACCESS:       1880  HIT:       1364  MISS:        516
cpu0_STLB PREFETCH  ACCESS:          0  HIT:          0  MISS:          0
cpu0_STLB WRITEBACK ACCESS:          0  HIT:          0  MISS:          0
cpu0_STLB TRANSLATION ACCESS:          0  HIT:          0  MISS:          0
cpu0_STLB PREFETCH  REQUESTED:          0  ISSUED:          0  USEFUL:          0  USELESS:          0
cpu0_STLB AVERAGE MISS LATENCY: 8.32623 cycles
cpu0_L1D TOTAL     ACCESS:   10116990  HIT:    8362498  MISS:    1754492
cpu0_L1D LOAD      ACCESS:    6328759  HIT:    4588471  MISS:    1740288
cpu0_L1D RFO       ACCESS:    3337801  HIT:    3324742  MISS:      13059
cpu0_L1D PREFETCH  ACCESS:          0  HIT:          0  MISS:          0
cpu0_L1D WRITEBACK ACCESS:          0  HIT:          0  MISS:          0
cpu0_L1D TRANSLATION ACCESS:     450430  HIT:     449285  MISS:       1145
cpu0_L1D PREFETCH  REQUESTED:          0  ISSUED:          0  USEFUL:          0  USELESS:          0
cpu0_L1D AVERAGE MISS LATENCY: 83.2598 cycles
cpu0_L2C TOTAL     ACCESS:    1775641  HIT:      23355  MISS:    1752286
cpu0_L2C LOAD      ACCESS:    1744627  HIT:       5922  MISS:    1738705
cpu0_L2C RFO       ACCESS:      13059  HIT:        137  MISS:      12922
cpu0_L2C PREFETCH  ACCESS:          0  HIT:          0  MISS:          0
cpu0_L2C WRITEBACK ACCESS:      16810  HIT:      16810  MISS:          0
cpu0_L2C TRANSLATION ACCESS:       1145  HIT:        486  MISS:        659
cpu0_L2C PREFETCH  REQUESTED:          0  ISSUED:          0  USEFUL:          0  USELESS:          0
cpu0_L2C AVERAGE MISS LATENCY: 71.7656 cycles
LLC TOTAL     ACCESS:    1768992  HIT:    1491474  MISS:     277518
LLC LOAD      ACCESS:    1738705  HIT:    1476991  MISS:     261714
LLC RFO       ACCESS:      12922  HIT:       2651  MISS:      10271
LLC PREFETCH  ACCESS:          0  HIT:          0  MISS:          0
LLC WRITEBACK ACCESS:      16706  HIT:      11258  MISS:       5448
LLC TRANSLATION ACCESS:        659  HIT:        574  MISS:         85
LLC PREFETCH  REQUESTED:          0  ISSUED:          0  USEFUL:          0  USELESS:          0
LLC AVERAGE MISS LATENCY: 320.489 cycles
Insertion Distribution: 
	LOAD 0 0 48956 283869 
	RFO 0 0 1438 9880 
	PREF 0 0 0 0 
	WRITEBACK 0 0 0 5530 
	 0 0 52 62 
Total Prefetch Downgrades: 0

DRAM Statistics
 CHANNEL 0
 RQ ROW_BUFFER_HIT:       8241  ROW_BUFFER_MISS:     263734
 DBUS AVG_CONGESTED_CYCLE:    3.96048
 WQ ROW_BUFFER_HIT:       3062  ROW_BUFFER_MISS:       8438  FULL:          0


CPU 0 Branch Prediction Accuracy: 97.6159% MPKI: 7.87238 Average ROB Occupancy at Mispredict: 63.2799
Branch type MPKI
BRANCH_DIRECT_JUMP: 0.00032
BRANCH_INDIRECT: 0.08474
BRANCH_CONDITIONAL: 7.75802
BRANCH_DIRECT_CALL: 0.00068
BRANCH_INDIRECT_CALL: 0.00292
BRANCH_RETURN: 0.0257

