
*** ChampSim Multicore Out-of-Order Simulator ***

Warmup Instructions: 10000000
Simulation Instructions: 100000000
Number of CPUs: 1
Off-chip DRAM Size: 4 GiB Channels: 1 Width: 64-bit Data Rate: 3200 MT/s

VirtualMemory physical capacity: 8588881920 num_ppages: 2096895
VirtualMemory page size: 4096 log2_page_size: 12

CPU 0 runs /datasets/cs240c-wi22-a00-public/data/Assignment2/omnetpp_4B.trace.xz
CPU 0 Bimodal branch predictor
Basic BTB sets: 1024 ways: 8 indirect buffer size: 4096 RAS size: 64
Initialize SRRIP state
Heartbeat CPU 0 instructions: 10000002 cycles: 2526486 heartbeat IPC: 3.95807 cumulative IPC: 3.95807 (Simulation time: 0 hr 0 min 27 sec) 

Warmup complete CPU 0 instructions: 10000002 cycles: 2526486 (Simulation time: 0 hr 0 min 27 sec) 

Heartbeat CPU 0 instructions: 20000000 cycles: 9114407 heartbeat IPC: 1.51793 cumulative IPC: 1.51793 (Simulation time: 0 hr 1 min 5 sec) 
Heartbeat CPU 0 instructions: 30000001 cycles: 15762407 heartbeat IPC: 1.50421 cumulative IPC: 1.51104 (Simulation time: 0 hr 1 min 48 sec) 
Heartbeat CPU 0 instructions: 40000002 cycles: 22502440 heartbeat IPC: 1.48367 cumulative IPC: 1.50181 (Simulation time: 0 hr 2 min 30 sec) 
Heartbeat CPU 0 instructions: 50000000 cycles: 29314736 heartbeat IPC: 1.46793 cumulative IPC: 1.49319 (Simulation time: 0 hr 3 min 12 sec) 
Heartbeat CPU 0 instructions: 60000000 cycles: 35927335 heartbeat IPC: 1.51226 cumulative IPC: 1.49697 (Simulation time: 0 hr 3 min 54 sec) 
Heartbeat CPU 0 instructions: 70000000 cycles: 42567855 heartbeat IPC: 1.50591 cumulative IPC: 1.49845 (Simulation time: 0 hr 4 min 34 sec) 
Heartbeat CPU 0 instructions: 80000000 cycles: 49158814 heartbeat IPC: 1.51723 cumulative IPC: 1.5011 (Simulation time: 0 hr 5 min 16 sec) 
Heartbeat CPU 0 instructions: 90000000 cycles: 56085147 heartbeat IPC: 1.44377 cumulative IPC: 1.49369 (Simulation time: 0 hr 6 min 0 sec) 
Heartbeat CPU 0 instructions: 100000000 cycles: 62381364 heartbeat IPC: 1.58826 cumulative IPC: 1.50364 (Simulation time: 0 hr 6 min 38 sec) 
Heartbeat CPU 0 instructions: 110000002 cycles: 69032661 heartbeat IPC: 1.50347 cumulative IPC: 1.50362 (Simulation time: 0 hr 7 min 21 sec) 
Finished CPU 0 instructions: 100000000 cycles: 66506175 cumulative IPC: 1.50362 (Simulation time: 0 hr 7 min 21 sec) 

ChampSim completed all CPUs

Region of Interest Statistics

CPU 0 cumulative IPC: 1.50362 instructions: 100000000 cycles: 66506175
cpu0_DTLB TOTAL     ACCESS:   11684409  HIT:   10252552  MISS:    1431857
cpu0_DTLB LOAD      ACCESS:    9098087  HIT:    7667793  MISS:    1430294
cpu0_DTLB RFO       ACCESS:    2586322  HIT:    2584759  MISS:       1563
cpu0_DTLB PREFETCH  ACCESS:          0  HIT:          0  MISS:          0
cpu0_DTLB WRITEBACK ACCESS:          0  HIT:          0  MISS:          0
cpu0_DTLB TRANSLATION ACCESS:          0  HIT:          0  MISS:          0
cpu0_DTLB PREFETCH  REQUESTED:          0  ISSUED:          0  USEFUL:          0  USELESS:          0
cpu0_DTLB AVERAGE MISS LATENCY: 17.5703 cycles
cpu0_ITLB TOTAL     ACCESS:    7987460  HIT:    7963293  MISS:      24167
cpu0_ITLB LOAD      ACCESS:    7987460  HIT:    7963293  MISS:      24167
cpu0_ITLB RFO       ACCESS:          0  HIT:          0  MISS:          0
cpu0_ITLB PREFETCH  ACCESS:          0  HIT:          0  MISS:          0
cpu0_ITLB WRITEBACK ACCESS:          0  HIT:          0  MISS:          0
cpu0_ITLB TRANSLATION ACCESS:          0  HIT:          0  MISS:          0
cpu0_ITLB PREFETCH  REQUESTED:          0  ISSUED:          0  USEFUL:          0  USELESS:          0
cpu0_ITLB AVERAGE MISS LATENCY: 10.8495 cycles
cpu0_L1I TOTAL     ACCESS:    1939454  HIT:    1876602  MISS:      62852
cpu0_L1I LOAD      ACCESS:    1939454  HIT:    1876602  MISS:      62852
cpu0_L1I RFO       ACCESS:          0  HIT:          0  MISS:          0
cpu0_L1I PREFETCH  ACCESS:          0  HIT:          0  MISS:          0
cpu0_L1I WRITEBACK ACCESS:          0  HIT:          0  MISS:          0
cpu0_L1I TRANSLATION ACCESS:          0  HIT:          0  MISS:          0
cpu0_L1I PREFETCH  REQUESTED:          0  ISSUED:          0  USEFUL:          0  USELESS:          0
cpu0_L1I AVERAGE MISS LATENCY: 43.9208 cycles
cpu0_STLB TOTAL     ACCESS:    1456024  HIT:      23475  MISS:    1432549
cpu0_STLB LOAD      ACCESS:    1454461  HIT:      22729  MISS:    1431732
cpu0_STLB RFO       ACCESS:       1563  HIT:        746  MISS:        817
cpu0_STLB PREFETCH  ACCESS:          0  HIT:          0  MISS:          0
cpu0_STLB WRITEBACK ACCESS:          0  HIT:          0  MISS:          0
cpu0_STLB TRANSLATION ACCESS:          0  HIT:          0  MISS:          0
cpu0_STLB PREFETCH  REQUESTED:          0  ISSUED:          0  USEFUL:          0  USELESS:          0
cpu0_STLB AVERAGE MISS LATENCY: 8.15356 cycles
cpu0_L1D TOTAL     ACCESS:   12536811  HIT:   10046911  MISS:    2489900
cpu0_L1D LOAD      ACCESS:    7270295  HIT:    4819104  MISS:    2451191
cpu0_L1D RFO       ACCESS:    4653014  HIT:    4615289  MISS:      37725
cpu0_L1D PREFETCH  ACCESS:          0  HIT:          0  MISS:          0
cpu0_L1D WRITEBACK ACCESS:          0  HIT:          0  MISS:          0
cpu0_L1D TRANSLATION ACCESS:     613502  HIT:     612518  MISS:        984
cpu0_L1D PREFETCH  REQUESTED:          0  ISSUED:          0  USEFUL:          0  USELESS:          0
cpu0_L1D AVERAGE MISS LATENCY: 63.9655 cycles
cpu0_L2C TOTAL     ACCESS:    2633700  HIT:     114304  MISS:    2519396
cpu0_L2C LOAD      ACCESS:    2514042  HIT:      32376  MISS:    2481666
cpu0_L2C RFO       ACCESS:      37725  HIT:        794  MISS:      36931
cpu0_L2C PREFETCH  ACCESS:          0  HIT:          0  MISS:          0
cpu0_L2C WRITEBACK ACCESS:      80949  HIT:      80949  MISS:          0
cpu0_L2C TRANSLATION ACCESS:        984  HIT:        185  MISS:        799
cpu0_L2C PREFETCH  REQUESTED:          0  ISSUED:          0  USEFUL:          0  USELESS:          0
cpu0_L2C AVERAGE MISS LATENCY: 52.4909 cycles
LLC TOTAL     ACCESS:    2598932  HIT:    2333319  MISS:     265613
LLC LOAD      ACCESS:    2481662  HIT:    2238839  MISS:     242823
LLC RFO       ACCESS:      36931  HIT:      20214  MISS:      16717
LLC PREFETCH  ACCESS:          0  HIT:          0  MISS:          0
LLC WRITEBACK ACCESS:      79540  HIT:      73554  MISS:       5986
LLC TRANSLATION ACCESS:        799  HIT:        712  MISS:         87
LLC PREFETCH  REQUESTED:          0  ISSUED:          0  USEFUL:          0  USELESS:          0
LLC AVERAGE MISS LATENCY: 298.611 cycles
Insertion Distribution: 
	LOAD 110369 0 120289 74097 
	RFO 3463 0 6227 8958 
	PREF 0 0 0 0 
	WRITEBACK 0 0 0 6533 
	 21 0 95 12 
Total Prefetch Downgrades: 0

DRAM Statistics
 CHANNEL 0
 RQ ROW_BUFFER_HIT:      23232  ROW_BUFFER_MISS:     235068
 DBUS AVG_CONGESTED_CYCLE:    3.94797
 WQ ROW_BUFFER_HIT:       5363  ROW_BUFFER_MISS:      42420  FULL:          0


CPU 0 Branch Prediction Accuracy: 97.4293% MPKI: 8.26178 Average ROB Occupancy at Mispredict: 57.0308
Branch type MPKI
BRANCH_DIRECT_JUMP: 0.00037
BRANCH_INDIRECT: 0.12485
BRANCH_CONDITIONAL: 8.10493
BRANCH_DIRECT_CALL: 0.00326
BRANCH_INDIRECT_CALL: 0.00558
BRANCH_RETURN: 0.02279

