
*** ChampSim Multicore Out-of-Order Simulator ***

Warmup Instructions: 10000000
Simulation Instructions: 100000000
Number of CPUs: 1
Off-chip DRAM Size: 4 GiB Channels: 1 Width: 64-bit Data Rate: 3200 MT/s

VirtualMemory physical capacity: 8588881920 num_ppages: 2096895
VirtualMemory page size: 4096 log2_page_size: 12

CPU 0 runs /datasets/cs240c-wi22-a00-public/data/Assignment2/libquantum_964B.trace.xz
CPU 0 Bimodal branch predictor
Basic BTB sets: 1024 ways: 8 indirect buffer size: 4096 RAS size: 64
Initialize SRRIP state
Heartbeat CPU 0 instructions: 10000001 cycles: 2500058 heartbeat IPC: 3.99991 cumulative IPC: 3.99991 (Simulation time: 0 hr 0 min 22 sec) 

Warmup complete CPU 0 instructions: 10000001 cycles: 2500058 (Simulation time: 0 hr 0 min 22 sec) 

Heartbeat CPU 0 instructions: 20000002 cycles: 18175885 heartbeat IPC: 0.637925 cumulative IPC: 0.637925 (Simulation time: 0 hr 1 min 15 sec) 
Heartbeat CPU 0 instructions: 30000004 cycles: 42809759 heartbeat IPC: 0.405945 cumulative IPC: 0.496159 (Simulation time: 0 hr 3 min 8 sec) 
Heartbeat CPU 0 instructions: 40000001 cycles: 65306635 heartbeat IPC: 0.444506 cumulative IPC: 0.477657 (Simulation time: 0 hr 5 min 3 sec) 
Heartbeat CPU 0 instructions: 50000003 cycles: 70330932 heartbeat IPC: 1.99033 cumulative IPC: 0.589702 (Simulation time: 0 hr 5 min 42 sec) 
Heartbeat CPU 0 instructions: 60000004 cycles: 80144192 heartbeat IPC: 1.01903 cumulative IPC: 0.643964 (Simulation time: 0 hr 6 min 22 sec) 
Heartbeat CPU 0 instructions: 70000003 cycles: 96767692 heartbeat IPC: 0.601558 cumulative IPC: 0.636486 (Simulation time: 0 hr 7 min 11 sec) 
Heartbeat CPU 0 instructions: 80000002 cycles: 122700650 heartbeat IPC: 0.38561 cumulative IPC: 0.58236 (Simulation time: 0 hr 9 min 5 sec) 
Heartbeat CPU 0 instructions: 90000001 cycles: 140600324 heartbeat IPC: 0.558669 cumulative IPC: 0.579289 (Simulation time: 0 hr 10 min 40 sec) 
Heartbeat CPU 0 instructions: 100000001 cycles: 145622843 heartbeat IPC: 1.99103 cumulative IPC: 0.628831 (Simulation time: 0 hr 11 min 19 sec) 
Heartbeat CPU 0 instructions: 110000003 cycles: 169201812 heartbeat IPC: 0.424107 cumulative IPC: 0.599874 (Simulation time: 0 hr 13 min 24 sec) 
Finished CPU 0 instructions: 100000002 cycles: 166701754 cumulative IPC: 0.599874 (Simulation time: 0 hr 13 min 24 sec) 

ChampSim completed all CPUs

Region of Interest Statistics

CPU 0 cumulative IPC: 0.599874 instructions: 100000002 cycles: 166701754
cpu0_DTLB TOTAL     ACCESS:    9099480  HIT:    9046482  MISS:      52998
cpu0_DTLB LOAD      ACCESS:    6219071  HIT:    6187880  MISS:      31191
cpu0_DTLB RFO       ACCESS:    2880409  HIT:    2858602  MISS:      21807
cpu0_DTLB PREFETCH  ACCESS:          0  HIT:          0  MISS:          0
cpu0_DTLB WRITEBACK ACCESS:          0  HIT:          0  MISS:          0
cpu0_DTLB TRANSLATION ACCESS:          0  HIT:          0  MISS:          0
cpu0_DTLB PREFETCH  REQUESTED:          0  ISSUED:          0  USEFUL:          0  USELESS:          0
cpu0_DTLB AVERAGE MISS LATENCY: 38.6525 cycles
cpu0_ITLB TOTAL     ACCESS:    1926746  HIT:    1926745  MISS:          1
cpu0_ITLB LOAD      ACCESS:    1926746  HIT:    1926745  MISS:          1
cpu0_ITLB RFO       ACCESS:          0  HIT:          0  MISS:          0
cpu0_ITLB PREFETCH  ACCESS:          0  HIT:          0  MISS:          0
cpu0_ITLB WRITEBACK ACCESS:          0  HIT:          0  MISS:          0
cpu0_ITLB TRANSLATION ACCESS:          0  HIT:          0  MISS:          0
cpu0_ITLB PREFETCH  REQUESTED:          0  ISSUED:          0  USEFUL:          0  USELESS:          0
cpu0_ITLB AVERAGE MISS LATENCY: 217 cycles
cpu0_L1I TOTAL     ACCESS:         11  HIT:          7  MISS:          4
cpu0_L1I LOAD      ACCESS:         11  HIT:          7  MISS:          4
cpu0_L1I RFO       ACCESS:          0  HIT:          0  MISS:          0
cpu0_L1I PREFETCH  ACCESS:          0  HIT:          0  MISS:          0
cpu0_L1I WRITEBACK ACCESS:          0  HIT:          0  MISS:          0
cpu0_L1I TRANSLATION ACCESS:          0  HIT:          0  MISS:          0
cpu0_L1I PREFETCH  REQUESTED:          0  ISSUED:          0  USEFUL:          0  USELESS:          0
cpu0_L1I AVERAGE MISS LATENCY: 261.5 cycles
cpu0_STLB TOTAL     ACCESS:      52999  HIT:          0  MISS:      52999
cpu0_STLB LOAD      ACCESS:      31192  HIT:          0  MISS:      31192
cpu0_STLB RFO       ACCESS:      21807  HIT:          0  MISS:      21807
cpu0_STLB PREFETCH  ACCESS:          0  HIT:          0  MISS:          0
cpu0_STLB WRITEBACK ACCESS:          0  HIT:          0  MISS:          0
cpu0_STLB TRANSLATION ACCESS:          0  HIT:          0  MISS:          0
cpu0_STLB PREFETCH  REQUESTED:          0  ISSUED:          0  USEFUL:          0  USELESS:          0
cpu0_STLB AVERAGE MISS LATENCY: 29.6558 cycles
cpu0_L1D TOTAL     ACCESS:    9382668  HIT:    5992228  MISS:    3390440
cpu0_L1D LOAD      ACCESS:    3613943  HIT:     223564  MISS:    3390379
cpu0_L1D RFO       ACCESS:    5715726  HIT:    5715702  MISS:         24
cpu0_L1D PREFETCH  ACCESS:          0  HIT:          0  MISS:          0
cpu0_L1D WRITEBACK ACCESS:          0  HIT:          0  MISS:          0
cpu0_L1D TRANSLATION ACCESS:      52999  HIT:      52962  MISS:         37
cpu0_L1D PREFETCH  REQUESTED:          0  ISSUED:          0  USEFUL:          0  USELESS:          0
cpu0_L1D AVERAGE MISS LATENCY: 418.617 cycles
cpu0_L2C TOTAL     ACCESS:    4919978  HIT:    1529534  MISS:    3390444
cpu0_L2C LOAD      ACCESS:    3390383  HIT:          0  MISS:    3390383
cpu0_L2C RFO       ACCESS:         24  HIT:          0  MISS:         24
cpu0_L2C PREFETCH  ACCESS:          0  HIT:          0  MISS:          0
cpu0_L2C WRITEBACK ACCESS:    1529534  HIT:    1529534  MISS:          0
cpu0_L2C TRANSLATION ACCESS:         37  HIT:          0  MISS:         37
cpu0_L2C PREFETCH  REQUESTED:          0  ISSUED:          0  USEFUL:          0  USELESS:          0
cpu0_L2C AVERAGE MISS LATENCY: 407.615 cycles
LLC TOTAL     ACCESS:    4913667  HIT:     276089  MISS:    4637578
LLC LOAD      ACCESS:    3390383  HIT:     165486  MISS:    3224897
LLC RFO       ACCESS:         24  HIT:         12  MISS:         12
LLC PREFETCH  ACCESS:          0  HIT:          0  MISS:          0
LLC WRITEBACK ACCESS:    1523223  HIT:     110575  MISS:    1412648
LLC TRANSLATION ACCESS:         37  HIT:         16  MISS:         21
LLC PREFETCH  REQUESTED:          0  ISSUED:          0  USEFUL:          0  USELESS:          0
LLC AVERAGE MISS LATENCY: 282.345 cycles
Insertion Distribution: 
	LOAD 53386 0 88987 3359525 
	RFO 0 0 16 0 
	PREF 0 0 0 0 
	WRITEBACK 0 0 0 1425904 
	 3 0 23 8 
Total Prefetch Downgrades: 0

DRAM Statistics
 CHANNEL 0
 RQ ROW_BUFFER_HIT:    1773159  ROW_BUFFER_MISS:    1451765
 DBUS AVG_CONGESTED_CYCLE:    3.89829
 WQ ROW_BUFFER_HIT:     260126  ROW_BUFFER_MISS:    1195030  FULL:     283393


CPU 0 Branch Prediction Accuracy: 98.7463% MPKI: 2.70066 Average ROB Occupancy at Mispredict: 44.782
Branch type MPKI
BRANCH_DIRECT_JUMP: 1e-05
BRANCH_INDIRECT: 0
BRANCH_CONDITIONAL: 2.70053
BRANCH_DIRECT_CALL: 6e-05
BRANCH_INDIRECT_CALL: 0
BRANCH_RETURN: 6e-05

