
*** ChampSim Multicore Out-of-Order Simulator ***

Warmup Instructions: 10000000
Simulation Instructions: 100000000
Number of CPUs: 1
Off-chip DRAM Size: 4 GiB Channels: 1 Width: 64-bit Data Rate: 3200 MT/s

VirtualMemory physical capacity: 8588881920 num_ppages: 2096895
VirtualMemory page size: 4096 log2_page_size: 12

CPU 0 runs /datasets/cs240c-wi22-a00-public/data/Assignment2/soplex_217B.trace.xz
CPU 0 Bimodal branch predictor
Basic BTB sets: 1024 ways: 8 indirect buffer size: 4096 RAS size: 64
Initialize SRRIP state
Heartbeat CPU 0 instructions: 10000000 cycles: 2844430 heartbeat IPC: 3.51564 cumulative IPC: 3.51564 (Simulation time: 0 hr 0 min 34 sec) 

Warmup complete CPU 0 instructions: 10000004 cycles: 2844431 (Simulation time: 0 hr 0 min 34 sec) 

Heartbeat CPU 0 instructions: 20000000 cycles: 34929972 heartbeat IPC: 0.311667 cumulative IPC: 0.311667 (Simulation time: 0 hr 2 min 19 sec) 
Heartbeat CPU 0 instructions: 30000004 cycles: 65263888 heartbeat IPC: 0.329664 cumulative IPC: 0.320413 (Simulation time: 0 hr 4 min 6 sec) 
Heartbeat CPU 0 instructions: 40000003 cycles: 95875973 heartbeat IPC: 0.326668 cumulative IPC: 0.322471 (Simulation time: 0 hr 5 min 47 sec) 
Heartbeat CPU 0 instructions: 50000000 cycles: 125118163 heartbeat IPC: 0.341972 cumulative IPC: 0.327135 (Simulation time: 0 hr 7 min 28 sec) 
Heartbeat CPU 0 instructions: 60000002 cycles: 155264270 heartbeat IPC: 0.331718 cumulative IPC: 0.328041 (Simulation time: 0 hr 9 min 11 sec) 
Heartbeat CPU 0 instructions: 70000000 cycles: 200678105 heartbeat IPC: 0.220197 cumulative IPC: 0.303285 (Simulation time: 0 hr 11 min 40 sec) 
Heartbeat CPU 0 instructions: 80000000 cycles: 237459293 heartbeat IPC: 0.271878 cumulative IPC: 0.298361 (Simulation time: 0 hr 13 min 22 sec) 
Heartbeat CPU 0 instructions: 90000002 cycles: 268130757 heartbeat IPC: 0.326036 cumulative IPC: 0.301561 (Simulation time: 0 hr 15 min 17 sec) 
Heartbeat CPU 0 instructions: 100000003 cycles: 298923929 heartbeat IPC: 0.324747 cumulative IPC: 0.303972 (Simulation time: 0 hr 17 min 7 sec) 
Heartbeat CPU 0 instructions: 110000000 cycles: 328080211 heartbeat IPC: 0.342979 cumulative IPC: 0.307469 (Simulation time: 0 hr 18 min 38 sec) 
Finished CPU 0 instructions: 100000000 cycles: 325235782 cumulative IPC: 0.307469 (Simulation time: 0 hr 18 min 38 sec) 

ChampSim completed all CPUs

Region of Interest Statistics

CPU 0 cumulative IPC: 0.307469 instructions: 100000000 cycles: 325235782
cpu0_DTLB TOTAL     ACCESS:   21894808  HIT:   21029728  MISS:     865080
cpu0_DTLB LOAD      ACCESS:   16725105  HIT:   16040437  MISS:     684668
cpu0_DTLB RFO       ACCESS:    5169703  HIT:    4989291  MISS:     180412
cpu0_DTLB PREFETCH  ACCESS:          0  HIT:          0  MISS:          0
cpu0_DTLB WRITEBACK ACCESS:          0  HIT:          0  MISS:          0
cpu0_DTLB TRANSLATION ACCESS:          0  HIT:          0  MISS:          0
cpu0_DTLB PREFETCH  REQUESTED:          0  ISSUED:          0  USEFUL:          0  USELESS:          0
cpu0_DTLB AVERAGE MISS LATENCY: 14.7991 cycles
cpu0_ITLB TOTAL     ACCESS:    8441429  HIT:    8441411  MISS:         18
cpu0_ITLB LOAD      ACCESS:    8441429  HIT:    8441411  MISS:         18
cpu0_ITLB RFO       ACCESS:          0  HIT:          0  MISS:          0
cpu0_ITLB PREFETCH  ACCESS:          0  HIT:          0  MISS:          0
cpu0_ITLB WRITEBACK ACCESS:          0  HIT:          0  MISS:          0
cpu0_ITLB TRANSLATION ACCESS:          0  HIT:          0  MISS:          0
cpu0_ITLB PREFETCH  REQUESTED:          0  ISSUED:          0  USEFUL:          0  USELESS:          0
cpu0_ITLB AVERAGE MISS LATENCY: 339.444 cycles
cpu0_L1I TOTAL     ACCESS:     356424  HIT:     355771  MISS:        653
cpu0_L1I LOAD      ACCESS:     356424  HIT:     355771  MISS:        653
cpu0_L1I RFO       ACCESS:          0  HIT:          0  MISS:          0
cpu0_L1I PREFETCH  ACCESS:          0  HIT:          0  MISS:          0
cpu0_L1I WRITEBACK ACCESS:          0  HIT:          0  MISS:          0
cpu0_L1I TRANSLATION ACCESS:          0  HIT:          0  MISS:          0
cpu0_L1I PREFETCH  REQUESTED:          0  ISSUED:          0  USEFUL:          0  USELESS:          0
cpu0_L1I AVERAGE MISS LATENCY: 310.795 cycles
cpu0_STLB TOTAL     ACCESS:     865098  HIT:     741583  MISS:     123515
cpu0_STLB LOAD      ACCESS:     684686  HIT:     570522  MISS:     114164
cpu0_STLB RFO       ACCESS:     180412  HIT:     171061  MISS:       9351
cpu0_STLB PREFETCH  ACCESS:          0  HIT:          0  MISS:          0
cpu0_STLB WRITEBACK ACCESS:          0  HIT:          0  MISS:          0
cpu0_STLB TRANSLATION ACCESS:          0  HIT:          0  MISS:          0
cpu0_STLB PREFETCH  REQUESTED:          0  ISSUED:          0  USEFUL:          0  USELESS:          0
cpu0_STLB AVERAGE MISS LATENCY: 39.5023 cycles
cpu0_L1D TOTAL     ACCESS:   18204568  HIT:   12380612  MISS:    5823956
cpu0_L1D LOAD      ACCESS:   12235917  HIT:    7241599  MISS:    4994318
cpu0_L1D RFO       ACCESS:    5848740  HIT:    5024120  MISS:     824620
cpu0_L1D PREFETCH  ACCESS:          0  HIT:          0  MISS:          0
cpu0_L1D WRITEBACK ACCESS:          0  HIT:          0  MISS:          0
cpu0_L1D TRANSLATION ACCESS:     119911  HIT:     114893  MISS:       5018
cpu0_L1D PREFETCH  REQUESTED:          0  ISSUED:          0  USEFUL:          0  USELESS:          0
cpu0_L1D AVERAGE MISS LATENCY: 202.724 cycles
cpu0_L2C TOTAL     ACCESS:    8411721  HIT:    3954612  MISS:    4457109
cpu0_L2C LOAD      ACCESS:    4994401  HIT:    1232246  MISS:    3762155
cpu0_L2C RFO       ACCESS:     824553  HIT:     130454  MISS:     694099
cpu0_L2C PREFETCH  ACCESS:          0  HIT:          0  MISS:          0
cpu0_L2C WRITEBACK ACCESS:    2587749  HIT:    2587645  MISS:        104
cpu0_L2C TRANSLATION ACCESS:       5018  HIT:       4267  MISS:        751
cpu0_L2C PREFETCH  REQUESTED:          0  ISSUED:          0  USEFUL:          0  USELESS:          0
cpu0_L2C AVERAGE MISS LATENCY: 250.327 cycles
LLC TOTAL     ACCESS:    6307886  HIT:    2878157  MISS:    3429729
LLC LOAD      ACCESS:    3762135  HIT:    1396853  MISS:    2365282
LLC RFO       ACCESS:     694096  HIT:     249277  MISS:     444819
LLC PREFETCH  ACCESS:          0  HIT:          0  MISS:          0
LLC WRITEBACK ACCESS:    1850904  HIT:    1231639  MISS:     619265
LLC TRANSLATION ACCESS:        751  HIT:        388  MISS:        363
LLC PREFETCH  REQUESTED:          0  ISSUED:          0  USEFUL:          0  USELESS:          0
LLC AVERAGE MISS LATENCY: 297.603 cycles
Insertion Distribution: 
	LOAD 273739 0 0 0 0 0 0 0 0 0 0 0 0 0 158054 2227716 
	RFO 126887 0 0 0 0 0 0 0 0 0 0 0 0 0 37787 326156 
	PREF 0 0 0 0 0 0 0 0 0 0 0 0 0 0 0 0 
	WRITEBACK 0 0 0 0 0 0 0 0 0 0 0 0 0 0 0 728558 
	 19 0 0 0 0 0 0 0 0 0 0 0 0 0 120 263 
Total Prefetch Downgrades: 0

DRAM Statistics
 CHANNEL 0
 RQ ROW_BUFFER_HIT:     338162  ROW_BUFFER_MISS:    2469933
 DBUS AVG_CONGESTED_CYCLE:    3.94949
 WQ ROW_BUFFER_HIT:      48424  ROW_BUFFER_MISS:     937050  FULL:     381822


CPU 0 Branch Prediction Accuracy: 93.2069% MPKI: 14.28 Average ROB Occupancy at Mispredict: 50.1659
Branch type MPKI
BRANCH_DIRECT_JUMP: 0.00099
BRANCH_INDIRECT: 0.00023
BRANCH_CONDITIONAL: 14.2767
BRANCH_DIRECT_CALL: 0.00062
BRANCH_INDIRECT_CALL: 0.00054
BRANCH_RETURN: 0.00093

