
*** ChampSim Multicore Out-of-Order Simulator ***

Warmup Instructions: 10000000
Simulation Instructions: 100000000
Number of CPUs: 1
Off-chip DRAM Size: 4 GiB Channels: 1 Width: 64-bit Data Rate: 3200 MT/s

VirtualMemory physical capacity: 8588881920 num_ppages: 2096895
VirtualMemory page size: 4096 log2_page_size: 12

CPU 0 runs /datasets/cs240c-wi22-a00-public/data/Assignment2/sphinx3_2520B.trace.xz
CPU 0 Bimodal branch predictor
Basic BTB sets: 1024 ways: 8 indirect buffer size: 4096 RAS size: 64
Initialize SRRIP state
Heartbeat CPU 0 instructions: 10000000 cycles: 2589703 heartbeat IPC: 3.86145 cumulative IPC: 3.86145 (Simulation time: 0 hr 0 min 28 sec) 

Warmup complete CPU 0 instructions: 10000004 cycles: 2589704 (Simulation time: 0 hr 0 min 28 sec) 

Heartbeat CPU 0 instructions: 20000002 cycles: 8753497 heartbeat IPC: 1.62238 cumulative IPC: 1.62238 (Simulation time: 0 hr 1 min 7 sec) 
Heartbeat CPU 0 instructions: 30000000 cycles: 14739306 heartbeat IPC: 1.67062 cumulative IPC: 1.64614 (Simulation time: 0 hr 1 min 42 sec) 
Heartbeat CPU 0 instructions: 40000001 cycles: 20348181 heartbeat IPC: 1.78289 cumulative IPC: 1.68933 (Simulation time: 0 hr 2 min 18 sec) 
Heartbeat CPU 0 instructions: 50000002 cycles: 26257193 heartbeat IPC: 1.69233 cumulative IPC: 1.69008 (Simulation time: 0 hr 2 min 55 sec) 
Heartbeat CPU 0 instructions: 60000001 cycles: 31960000 heartbeat IPC: 1.75352 cumulative IPC: 1.7024 (Simulation time: 0 hr 3 min 29 sec) 
Heartbeat CPU 0 instructions: 70000004 cycles: 37545064 heartbeat IPC: 1.79049 cumulative IPC: 1.71648 (Simulation time: 0 hr 4 min 6 sec) 
Heartbeat CPU 0 instructions: 80000000 cycles: 43216919 heartbeat IPC: 1.76309 cumulative IPC: 1.72298 (Simulation time: 0 hr 4 min 41 sec) 
Heartbeat CPU 0 instructions: 90000003 cycles: 48913347 heartbeat IPC: 1.75549 cumulative IPC: 1.72698 (Simulation time: 0 hr 5 min 15 sec) 
Heartbeat CPU 0 instructions: 100000002 cycles: 54756990 heartbeat IPC: 1.71126 cumulative IPC: 1.72522 (Simulation time: 0 hr 5 min 49 sec) 
Heartbeat CPU 0 instructions: 110000003 cycles: 63504817 heartbeat IPC: 1.14314 cumulative IPC: 1.64163 (Simulation time: 0 hr 6 min 32 sec) 
Finished CPU 0 instructions: 100000004 cycles: 60915114 cumulative IPC: 1.64163 (Simulation time: 0 hr 6 min 32 sec) 

ChampSim completed all CPUs

Region of Interest Statistics

CPU 0 cumulative IPC: 1.64163 instructions: 100000004 cycles: 60915114
cpu0_DTLB TOTAL     ACCESS:   16091237  HIT:   16035351  MISS:      55886
cpu0_DTLB LOAD      ACCESS:   15055646  HIT:   15003129  MISS:      52517
cpu0_DTLB RFO       ACCESS:    1035591  HIT:    1032222  MISS:       3369
cpu0_DTLB PREFETCH  ACCESS:          0  HIT:          0  MISS:          0
cpu0_DTLB WRITEBACK ACCESS:          0  HIT:          0  MISS:          0
cpu0_DTLB TRANSLATION ACCESS:          0  HIT:          0  MISS:          0
cpu0_DTLB PREFETCH  REQUESTED:          0  ISSUED:          0  USEFUL:          0  USELESS:          0
cpu0_DTLB AVERAGE MISS LATENCY: 11.3103 cycles
cpu0_ITLB TOTAL     ACCESS:    9580569  HIT:    9580527  MISS:         42
cpu0_ITLB LOAD      ACCESS:    9580569  HIT:    9580527  MISS:         42
cpu0_ITLB RFO       ACCESS:          0  HIT:          0  MISS:          0
cpu0_ITLB PREFETCH  ACCESS:          0  HIT:          0  MISS:          0
cpu0_ITLB WRITEBACK ACCESS:          0  HIT:          0  MISS:          0
cpu0_ITLB TRANSLATION ACCESS:          0  HIT:          0  MISS:          0
cpu0_ITLB PREFETCH  REQUESTED:          0  ISSUED:          0  USEFUL:          0  USELESS:          0
cpu0_ITLB AVERAGE MISS LATENCY: 151.429 cycles
cpu0_L1I TOTAL     ACCESS:     267709  HIT:     266416  MISS:       1293
cpu0_L1I LOAD      ACCESS:     267709  HIT:     266416  MISS:       1293
cpu0_L1I RFO       ACCESS:          0  HIT:          0  MISS:          0
cpu0_L1I PREFETCH  ACCESS:          0  HIT:          0  MISS:          0
cpu0_L1I WRITEBACK ACCESS:          0  HIT:          0  MISS:          0
cpu0_L1I TRANSLATION ACCESS:          0  HIT:          0  MISS:          0
cpu0_L1I PREFETCH  REQUESTED:          0  ISSUED:          0  USEFUL:          0  USELESS:          0
cpu0_L1I AVERAGE MISS LATENCY: 154.072 cycles
cpu0_STLB TOTAL     ACCESS:      55928  HIT:      51122  MISS:       4806
cpu0_STLB LOAD      ACCESS:      52559  HIT:      47884  MISS:       4675
cpu0_STLB RFO       ACCESS:       3369  HIT:       3238  MISS:        131
cpu0_STLB PREFETCH  ACCESS:          0  HIT:          0  MISS:          0
cpu0_STLB WRITEBACK ACCESS:          0  HIT:          0  MISS:          0
cpu0_STLB TRANSLATION ACCESS:          0  HIT:          0  MISS:          0
cpu0_STLB PREFETCH  REQUESTED:          0  ISSUED:          0  USEFUL:          0  USELESS:          0
cpu0_STLB AVERAGE MISS LATENCY: 27.5961 cycles
cpu0_L1D TOTAL     ACCESS:   11599592  HIT:   10260200  MISS:    1339392
cpu0_L1D LOAD      ACCESS:   10240227  HIT:    9026483  MISS:    1213744
cpu0_L1D RFO       ACCESS:    1354826  HIT:    1229292  MISS:     125534
cpu0_L1D PREFETCH  ACCESS:          0  HIT:          0  MISS:          0
cpu0_L1D WRITEBACK ACCESS:          0  HIT:          0  MISS:          0
cpu0_L1D TRANSLATION ACCESS:       4539  HIT:       4425  MISS:        114
cpu0_L1D PREFETCH  REQUESTED:          0  ISSUED:          0  USEFUL:          0  USELESS:          0
cpu0_L1D AVERAGE MISS LATENCY: 72.8828 cycles
cpu0_L2C TOTAL     ACCESS:    1472899  HIT:     251131  MISS:    1221768
cpu0_L2C LOAD      ACCESS:    1215037  HIT:     113626  MISS:    1101411
cpu0_L2C RFO       ACCESS:     125533  HIT:       5423  MISS:     120110
cpu0_L2C PREFETCH  ACCESS:          0  HIT:          0  MISS:          0
cpu0_L2C WRITEBACK ACCESS:     132215  HIT:     132053  MISS:        162
cpu0_L2C TRANSLATION ACCESS:        114  HIT:         29  MISS:         85
cpu0_L2C PREFETCH  REQUESTED:          0  ISSUED:          0  USEFUL:          0  USELESS:          0
cpu0_L2C AVERAGE MISS LATENCY: 67.9704 cycles
LLC TOTAL     ACCESS:    1348263  HIT:     997456  MISS:     350807
LLC LOAD      ACCESS:    1101411  HIT:     759554  MISS:     341857
LLC RFO       ACCESS:     120110  HIT:     113237  MISS:       6873
LLC PREFETCH  ACCESS:          0  HIT:          0  MISS:          0
LLC WRITEBACK ACCESS:     126657  HIT:     124606  MISS:       2051
LLC TRANSLATION ACCESS:         85  HIT:         59  MISS:         26
LLC PREFETCH  REQUESTED:          0  ISSUED:          0  USEFUL:          0  USELESS:          0
LLC AVERAGE MISS LATENCY: 163.588 cycles
Insertion Distribution: 
	LOAD 31768 0 81865 309401 
	RFO 4358 0 5918 1493 
	PREF 0 0 0 0 
	WRITEBACK 0 0 0 2144 
	 4 0 30 9 
Total Prefetch Downgrades: 0

DRAM Statistics
 CHANNEL 0
 RQ ROW_BUFFER_HIT:      97099  ROW_BUFFER_MISS:     251449
 DBUS AVG_CONGESTED_CYCLE:     3.8429
 WQ ROW_BUFFER_HIT:       4007  ROW_BUFFER_MISS:       4537  FULL:          0


CPU 0 Branch Prediction Accuracy: 93.1904% MPKI: 5.9173 Average ROB Occupancy at Mispredict: 191.244
Branch type MPKI
BRANCH_DIRECT_JUMP: 0.00106
BRANCH_INDIRECT: 0
BRANCH_CONDITIONAL: 5.91482
BRANCH_DIRECT_CALL: 0.00069
BRANCH_INDIRECT_CALL: 3e-05
BRANCH_RETURN: 0.0007

