
*** ChampSim Multicore Out-of-Order Simulator ***

Warmup Instructions: 10000000
Simulation Instructions: 100000000
Number of CPUs: 1
Off-chip DRAM Size: 4 GiB Channels: 1 Width: 64-bit Data Rate: 3200 MT/s

VirtualMemory physical capacity: 8588881920 num_ppages: 2096895
VirtualMemory page size: 4096 log2_page_size: 12

CPU 0 runs /datasets/cs240c-wi22-a00-public/data/Assignment2/leslie3d_94B.trace.xz
CPU 0 Bimodal branch predictor
Basic BTB sets: 1024 ways: 8 indirect buffer size: 4096 RAS size: 64
Initialize SRRIP state
Heartbeat CPU 0 instructions: 10000002 cycles: 4308716 heartbeat IPC: 2.32088 cumulative IPC: 2.32088 (Simulation time: 0 hr 1 min 9 sec) 

Warmup complete CPU 0 instructions: 10000002 cycles: 4308716 (Simulation time: 0 hr 1 min 9 sec) 

Heartbeat CPU 0 instructions: 20000000 cycles: 27842318 heartbeat IPC: 0.424924 cumulative IPC: 0.424924 (Simulation time: 0 hr 3 min 50 sec) 
Heartbeat CPU 0 instructions: 30000001 cycles: 78327663 heartbeat IPC: 0.198077 cumulative IPC: 0.270201 (Simulation time: 0 hr 8 min 47 sec) 
Heartbeat CPU 0 instructions: 40000001 cycles: 88622305 heartbeat IPC: 0.971379 cumulative IPC: 0.355815 (Simulation time: 0 hr 10 min 34 sec) 
Heartbeat CPU 0 instructions: 50000002 cycles: 98975381 heartbeat IPC: 0.965897 cumulative IPC: 0.422535 (Simulation time: 0 hr 12 min 19 sec) 
Heartbeat CPU 0 instructions: 60000003 cycles: 109291135 heartbeat IPC: 0.969391 cumulative IPC: 0.47627 (Simulation time: 0 hr 14 min 4 sec) 
Heartbeat CPU 0 instructions: 70000001 cycles: 119617597 heartbeat IPC: 0.968386 cumulative IPC: 0.520342 (Simulation time: 0 hr 15 min 50 sec) 
Heartbeat CPU 0 instructions: 80000003 cycles: 133460546 heartbeat IPC: 0.72239 cumulative IPC: 0.541998 (Simulation time: 0 hr 17 min 50 sec) 
Heartbeat CPU 0 instructions: 90000004 cycles: 167082295 heartbeat IPC: 0.297427 cumulative IPC: 0.49148 (Simulation time: 0 hr 21 min 43 sec) 
Heartbeat CPU 0 instructions: 100000001 cycles: 221433114 heartbeat IPC: 0.18399 cumulative IPC: 0.414509 (Simulation time: 0 hr 27 min 39 sec) 
Heartbeat CPU 0 instructions: 110000004 cycles: 237841568 heartbeat IPC: 0.609442 cumulative IPC: 0.428205 (Simulation time: 0 hr 29 min 36 sec) 
Finished CPU 0 instructions: 100000002 cycles: 233532852 cumulative IPC: 0.428205 (Simulation time: 0 hr 29 min 36 sec) 

ChampSim completed all CPUs

Region of Interest Statistics

CPU 0 cumulative IPC: 0.428205 instructions: 100000002 cycles: 233532852
cpu0_DTLB TOTAL     ACCESS:   26707452  HIT:   26594815  MISS:     112637
cpu0_DTLB LOAD      ACCESS:   21455449  HIT:   21359749  MISS:      95700
cpu0_DTLB RFO       ACCESS:    5252003  HIT:    5235066  MISS:      16937
cpu0_DTLB PREFETCH  ACCESS:          0  HIT:          0  MISS:          0
cpu0_DTLB WRITEBACK ACCESS:          0  HIT:          0  MISS:          0
cpu0_DTLB TRANSLATION ACCESS:          0  HIT:          0  MISS:          0
cpu0_DTLB PREFETCH  REQUESTED:          0  ISSUED:          0  USEFUL:          0  USELESS:          0
cpu0_DTLB AVERAGE MISS LATENCY: 100.482 cycles
cpu0_ITLB TOTAL     ACCESS:    3123550  HIT:    3123493  MISS:         57
cpu0_ITLB LOAD      ACCESS:    3123550  HIT:    3123493  MISS:         57
cpu0_ITLB RFO       ACCESS:          0  HIT:          0  MISS:          0
cpu0_ITLB PREFETCH  ACCESS:          0  HIT:          0  MISS:          0
cpu0_ITLB WRITEBACK ACCESS:          0  HIT:          0  MISS:          0
cpu0_ITLB TRANSLATION ACCESS:          0  HIT:          0  MISS:          0
cpu0_ITLB PREFETCH  REQUESTED:          0  ISSUED:          0  USEFUL:          0  USELESS:          0
cpu0_ITLB AVERAGE MISS LATENCY: 223.614 cycles
cpu0_L1I TOTAL     ACCESS:    1637579  HIT:    1636507  MISS:       1072
cpu0_L1I LOAD      ACCESS:    1637579  HIT:    1636507  MISS:       1072
cpu0_L1I RFO       ACCESS:          0  HIT:          0  MISS:          0
cpu0_L1I PREFETCH  ACCESS:          0  HIT:          0  MISS:          0
cpu0_L1I WRITEBACK ACCESS:          0  HIT:          0  MISS:          0
cpu0_L1I TRANSLATION ACCESS:          0  HIT:          0  MISS:          0
cpu0_L1I PREFETCH  REQUESTED:          0  ISSUED:          0  USEFUL:          0  USELESS:          0
cpu0_L1I AVERAGE MISS LATENCY: 326.049 cycles
cpu0_STLB TOTAL     ACCESS:     112694  HIT:      62998  MISS:      49696
cpu0_STLB LOAD      ACCESS:      95757  HIT:      56410  MISS:      39347
cpu0_STLB RFO       ACCESS:      16937  HIT:       6588  MISS:      10349
cpu0_STLB PREFETCH  ACCESS:          0  HIT:          0  MISS:          0
cpu0_STLB WRITEBACK ACCESS:          0  HIT:          0  MISS:          0
cpu0_STLB TRANSLATION ACCESS:          0  HIT:          0  MISS:          0
cpu0_STLB PREFETCH  REQUESTED:          0  ISSUED:          0  USEFUL:          0  USELESS:          0
cpu0_STLB AVERAGE MISS LATENCY: 207.512 cycles
cpu0_L1D TOTAL     ACCESS:   22236550  HIT:   18200571  MISS:    4035979
cpu0_L1D LOAD      ACCESS:   13847812  HIT:   10758917  MISS:    3088895
cpu0_L1D RFO       ACCESS:    8346389  HIT:    7404214  MISS:     942175
cpu0_L1D PREFETCH  ACCESS:          0  HIT:          0  MISS:          0
cpu0_L1D WRITEBACK ACCESS:          0  HIT:          0  MISS:          0
cpu0_L1D TRANSLATION ACCESS:      42349  HIT:      37440  MISS:       4909
cpu0_L1D PREFETCH  REQUESTED:          0  ISSUED:          0  USEFUL:          0  USELESS:          0
cpu0_L1D AVERAGE MISS LATENCY: 620.918 cycles
cpu0_L2C TOTAL     ACCESS:    5249026  HIT:    2252241  MISS:    2996785
cpu0_L2C LOAD      ACCESS:    3089961  HIT:     791718  MISS:    2298243
cpu0_L2C RFO       ACCESS:     942083  HIT:     246114  MISS:     695969
cpu0_L2C PREFETCH  ACCESS:          0  HIT:          0  MISS:          0
cpu0_L2C WRITEBACK ACCESS:    1212073  HIT:    1209783  MISS:       2290
cpu0_L2C TRANSLATION ACCESS:       4909  HIT:       4626  MISS:        283
cpu0_L2C PREFETCH  REQUESTED:          0  ISSUED:          0  USEFUL:          0  USELESS:          0
cpu0_L2C AVERAGE MISS LATENCY: 821.458 cycles
LLC TOTAL     ACCESS:    3927546  HIT:     574487  MISS:    3353059
LLC LOAD      ACCESS:    2298240  HIT:     377166  MISS:    1921074
LLC RFO       ACCESS:     695956  HIT:      38978  MISS:     656978
LLC PREFETCH  ACCESS:          0  HIT:          0  MISS:          0
LLC WRITEBACK ACCESS:     933067  HIT:     158103  MISS:     774964
LLC TRANSLATION ACCESS:        283  HIT:        240  MISS:         43
LLC PREFETCH  REQUESTED:          0  ISSUED:          0  USEFUL:          0  USELESS:          0
LLC AVERAGE MISS LATENCY: 715.388 cycles
Insertion Distribution: 
	LOAD 13427 0 400772 1672517 
	RFO 12 0 67880 591580 
	PREF 0 0 0 0 
	WRITEBACK 0 0 0 793492 
	 0 0 42 16 
Total Prefetch Downgrades: 0

DRAM Statistics
 CHANNEL 0
 RQ ROW_BUFFER_HIT:     172498  ROW_BUFFER_MISS:    2405363
 DBUS AVG_CONGESTED_CYCLE:    3.97439
 WQ ROW_BUFFER_HIT:      52719  ROW_BUFFER_MISS:     806358  FULL:      12628


CPU 0 Branch Prediction Accuracy: 96.9231% MPKI: 1.73686 Average ROB Occupancy at Mispredict: 309.906
Branch type MPKI
BRANCH_DIRECT_JUMP: 0.00082
BRANCH_INDIRECT: 0.00014
BRANCH_CONDITIONAL: 1.73229
BRANCH_DIRECT_CALL: 0.00185
BRANCH_INDIRECT_CALL: 3e-05
BRANCH_RETURN: 0.00173

