
*** ChampSim Multicore Out-of-Order Simulator ***

Warmup Instructions: 10000000
Simulation Instructions: 100000000
Number of CPUs: 1
Off-chip DRAM Size: 4 GiB Channels: 1 Width: 64-bit Data Rate: 3200 MT/s

VirtualMemory physical capacity: 8588881920 num_ppages: 2096895
VirtualMemory page size: 4096 log2_page_size: 12

CPU 0 runs /datasets/cs240c-wi22-a00-public/data/Assignment2/soplex_217B.trace.xz
CPU 0 Bimodal branch predictor
Basic BTB sets: 1024 ways: 8 indirect buffer size: 4096 RAS size: 64
Initialize SRRIP state
Heartbeat CPU 0 instructions: 10000000 cycles: 2844447 heartbeat IPC: 3.51562 cumulative IPC: 3.51562 (Simulation time: 0 hr 0 min 32 sec) 

Warmup complete CPU 0 instructions: 10000004 cycles: 2844448 (Simulation time: 0 hr 0 min 32 sec) 

Heartbeat CPU 0 instructions: 20000000 cycles: 33831449 heartbeat IPC: 0.322716 cumulative IPC: 0.322716 (Simulation time: 0 hr 2 min 6 sec) 
Heartbeat CPU 0 instructions: 30000004 cycles: 64153146 heartbeat IPC: 0.329797 cumulative IPC: 0.326218 (Simulation time: 0 hr 3 min 35 sec) 
Heartbeat CPU 0 instructions: 40000003 cycles: 94560052 heartbeat IPC: 0.328873 cumulative IPC: 0.327098 (Simulation time: 0 hr 5 min 2 sec) 
Heartbeat CPU 0 instructions: 50000000 cycles: 123566715 heartbeat IPC: 0.344748 cumulative IPC: 0.331339 (Simulation time: 0 hr 6 min 32 sec) 
Heartbeat CPU 0 instructions: 60000002 cycles: 153629327 heartbeat IPC: 0.332639 cumulative IPC: 0.331598 (Simulation time: 0 hr 8 min 9 sec) 
Heartbeat CPU 0 instructions: 70000000 cycles: 197873452 heartbeat IPC: 0.226019 cumulative IPC: 0.307647 (Simulation time: 0 hr 10 min 25 sec) 
Heartbeat CPU 0 instructions: 80000000 cycles: 230572082 heartbeat IPC: 0.305823 cumulative IPC: 0.307385 (Simulation time: 0 hr 11 min 48 sec) 
Heartbeat CPU 0 instructions: 90000002 cycles: 259834510 heartbeat IPC: 0.341735 cumulative IPC: 0.311296 (Simulation time: 0 hr 13 min 24 sec) 
Heartbeat CPU 0 instructions: 100000003 cycles: 290847704 heartbeat IPC: 0.322443 cumulative IPC: 0.312496 (Simulation time: 0 hr 14 min 59 sec) 
Heartbeat CPU 0 instructions: 110000000 cycles: 319601792 heartbeat IPC: 0.347777 cumulative IPC: 0.315699 (Simulation time: 0 hr 16 min 12 sec) 
Finished CPU 0 instructions: 100000000 cycles: 316757346 cumulative IPC: 0.315699 (Simulation time: 0 hr 16 min 12 sec) 

ChampSim completed all CPUs

Region of Interest Statistics

CPU 0 cumulative IPC: 0.315699 instructions: 100000000 cycles: 316757346
cpu0_DTLB TOTAL     ACCESS:   21877141  HIT:   21011897  MISS:     865244
cpu0_DTLB LOAD      ACCESS:   16714321  HIT:   16029503  MISS:     684818
cpu0_DTLB RFO       ACCESS:    5162820  HIT:    4982394  MISS:     180426
cpu0_DTLB PREFETCH  ACCESS:          0  HIT:          0  MISS:          0
cpu0_DTLB WRITEBACK ACCESS:          0  HIT:          0  MISS:          0
cpu0_DTLB TRANSLATION ACCESS:          0  HIT:          0  MISS:          0
cpu0_DTLB PREFETCH  REQUESTED:          0  ISSUED:          0  USEFUL:          0  USELESS:          0
cpu0_DTLB AVERAGE MISS LATENCY: 14.6128 cycles
cpu0_ITLB TOTAL     ACCESS:    8460528  HIT:    8460510  MISS:         18
cpu0_ITLB LOAD      ACCESS:    8460528  HIT:    8460510  MISS:         18
cpu0_ITLB RFO       ACCESS:          0  HIT:          0  MISS:          0
cpu0_ITLB PREFETCH  ACCESS:          0  HIT:          0  MISS:          0
cpu0_ITLB WRITEBACK ACCESS:          0  HIT:          0  MISS:          0
cpu0_ITLB TRANSLATION ACCESS:          0  HIT:          0  MISS:          0
cpu0_ITLB PREFETCH  REQUESTED:          0  ISSUED:          0  USEFUL:          0  USELESS:          0
cpu0_ITLB AVERAGE MISS LATENCY: 317.944 cycles
cpu0_L1I TOTAL     ACCESS:     355085  HIT:     354432  MISS:        653
cpu0_L1I LOAD      ACCESS:     355085  HIT:     354432  MISS:        653
cpu0_L1I RFO       ACCESS:          0  HIT:          0  MISS:          0
cpu0_L1I PREFETCH  ACCESS:          0  HIT:          0  MISS:          0
cpu0_L1I WRITEBACK ACCESS:          0  HIT:          0  MISS:          0
cpu0_L1I TRANSLATION ACCESS:          0  HIT:          0  MISS:          0
cpu0_L1I PREFETCH  REQUESTED:          0  ISSUED:          0  USEFUL:          0  USELESS:          0
cpu0_L1I AVERAGE MISS LATENCY: 310.337 cycles
cpu0_STLB TOTAL     ACCESS:     865262  HIT:     741746  MISS:     123516
cpu0_STLB LOAD      ACCESS:     684836  HIT:     570674  MISS:     114162
cpu0_STLB RFO       ACCESS:     180426  HIT:     171072  MISS:       9354
cpu0_STLB PREFETCH  ACCESS:          0  HIT:          0  MISS:          0
cpu0_STLB WRITEBACK ACCESS:          0  HIT:          0  MISS:          0
cpu0_STLB TRANSLATION ACCESS:          0  HIT:          0  MISS:          0
cpu0_STLB PREFETCH  REQUESTED:          0  ISSUED:          0  USEFUL:          0  USELESS:          0
cpu0_STLB AVERAGE MISS LATENCY: 38.1977 cycles
cpu0_L1D TOTAL     ACCESS:   18168272  HIT:   12344248  MISS:    5824024
cpu0_L1D LOAD      ACCESS:   12233603  HIT:    7239243  MISS:    4994360
cpu0_L1D RFO       ACCESS:    5814690  HIT:    4990050  MISS:     824640
cpu0_L1D PREFETCH  ACCESS:          0  HIT:          0  MISS:          0
cpu0_L1D WRITEBACK ACCESS:          0  HIT:          0  MISS:          0
cpu0_L1D TRANSLATION ACCESS:     119979  HIT:     114955  MISS:       5024
cpu0_L1D PREFETCH  REQUESTED:          0  ISSUED:          0  USEFUL:          0  USELESS:          0
cpu0_L1D AVERAGE MISS LATENCY: 196.737 cycles
cpu0_L2C TOTAL     ACCESS:    8411829  HIT:    3954455  MISS:    4457374
cpu0_L2C LOAD      ACCESS:    4994443  HIT:    1232034  MISS:    3762409
cpu0_L2C RFO       ACCESS:     824577  HIT:     130466  MISS:     694111
cpu0_L2C PREFETCH  ACCESS:          0  HIT:          0  MISS:          0
cpu0_L2C WRITEBACK ACCESS:    2587785  HIT:    2587682  MISS:        103
cpu0_L2C TRANSLATION ACCESS:       5024  HIT:       4273  MISS:        751
cpu0_L2C PREFETCH  REQUESTED:          0  ISSUED:          0  USEFUL:          0  USELESS:          0
cpu0_L2C AVERAGE MISS LATENCY: 242.49 cycles
LLC TOTAL     ACCESS:    6308276  HIT:    3118323  MISS:    3189953
LLC LOAD      ACCESS:    3762394  HIT:    1486427  MISS:    2275967
LLC RFO       ACCESS:     694108  HIT:     256687  MISS:     437421
LLC PREFETCH  ACCESS:          0  HIT:          0  MISS:          0
LLC WRITEBACK ACCESS:    1851023  HIT:    1374889  MISS:     476134
LLC TRANSLATION ACCESS:        751  HIT:        320  MISS:        431
LLC PREFETCH  REQUESTED:          0  ISSUED:          0  USEFUL:          0  USELESS:          0
LLC AVERAGE MISS LATENCY: 309.103 cycles
Insertion Distribution: 
	LOAD 356458 0 272110 1921724 
	RFO 109795 0 75355 298567 
	PREF 0 0 0 0 
	WRITEBACK 0 0 0 552548 
	 14 0 174 295 
Total Prefetch Downgrades: 0

DRAM Statistics
 CHANNEL 0
 RQ ROW_BUFFER_HIT:     310932  ROW_BUFFER_MISS:    2400464
 DBUS AVG_CONGESTED_CYCLE:    3.94667
 WQ ROW_BUFFER_HIT:      50624  ROW_BUFFER_MISS:     893678  FULL:     343569


CPU 0 Branch Prediction Accuracy: 93.2069% MPKI: 14.28 Average ROB Occupancy at Mispredict: 50.0786
Branch type MPKI
BRANCH_DIRECT_JUMP: 0.00099
BRANCH_INDIRECT: 0.00023
BRANCH_CONDITIONAL: 14.2767
BRANCH_DIRECT_CALL: 0.00062
BRANCH_INDIRECT_CALL: 0.00054
BRANCH_RETURN: 0.00093

