
*** ChampSim Multicore Out-of-Order Simulator ***

Warmup Instructions: 10000000
Simulation Instructions: 100000000
Number of CPUs: 1
Off-chip DRAM Size: 4 GiB Channels: 1 Width: 64-bit Data Rate: 3200 MT/s

VirtualMemory physical capacity: 8588881920 num_ppages: 2096895
VirtualMemory page size: 4096 log2_page_size: 12

CPU 0 runs /datasets/cs240c-wi22-a00-public/data/Assignment2/GemsFDTD_109B.trace.xz
CPU 0 Bimodal branch predictor
Basic BTB sets: 1024 ways: 8 indirect buffer size: 4096 RAS size: 64
Initialize SRRIP state
Heartbeat CPU 0 instructions: 10000004 cycles: 4294006 heartbeat IPC: 2.32883 cumulative IPC: 2.32883 (Simulation time: 0 hr 0 min 59 sec) 

Warmup complete CPU 0 instructions: 10000004 cycles: 4294006 (Simulation time: 0 hr 0 min 59 sec) 

Heartbeat CPU 0 instructions: 20000000 cycles: 34788310 heartbeat IPC: 0.32793 cumulative IPC: 0.32793 (Simulation time: 0 hr 4 min 13 sec) 
Heartbeat CPU 0 instructions: 30000004 cycles: 55830577 heartbeat IPC: 0.475234 cumulative IPC: 0.388074 (Simulation time: 0 hr 6 min 4 sec) 
Heartbeat CPU 0 instructions: 40000004 cycles: 61855217 heartbeat IPC: 1.65985 cumulative IPC: 0.521184 (Simulation time: 0 hr 6 min 49 sec) 
Heartbeat CPU 0 instructions: 50000002 cycles: 82618088 heartbeat IPC: 0.481629 cumulative IPC: 0.510699 (Simulation time: 0 hr 8 min 48 sec) 
Heartbeat CPU 0 instructions: 60000002 cycles: 124084096 heartbeat IPC: 0.241161 cumulative IPC: 0.417397 (Simulation time: 0 hr 12 min 53 sec) 
Heartbeat CPU 0 instructions: 70000001 cycles: 163803576 heartbeat IPC: 0.251766 cumulative IPC: 0.376153 (Simulation time: 0 hr 16 min 53 sec) 
Heartbeat CPU 0 instructions: 80000004 cycles: 203539902 heartbeat IPC: 0.251659 cumulative IPC: 0.351325 (Simulation time: 0 hr 20 min 55 sec) 
Heartbeat CPU 0 instructions: 90000000 cycles: 243113507 heartbeat IPC: 0.252694 cumulative IPC: 0.334981 (Simulation time: 0 hr 24 min 57 sec) 
Heartbeat CPU 0 instructions: 100000003 cycles: 282872892 heartbeat IPC: 0.251513 cumulative IPC: 0.323068 (Simulation time: 0 hr 28 min 56 sec) 
Heartbeat CPU 0 instructions: 110000004 cycles: 322531982 heartbeat IPC: 0.252149 cumulative IPC: 0.31423 (Simulation time: 0 hr 32 min 55 sec) 
Finished CPU 0 instructions: 100000000 cycles: 318237976 cumulative IPC: 0.31423 (Simulation time: 0 hr 32 min 55 sec) 

ChampSim completed all CPUs

Region of Interest Statistics

CPU 0 cumulative IPC: 0.31423 instructions: 100000000 cycles: 318237976
cpu0_DTLB TOTAL     ACCESS:   26453683  HIT:   26254262  MISS:     199421
cpu0_DTLB LOAD      ACCESS:   21024179  HIT:   20826760  MISS:     197419
cpu0_DTLB RFO       ACCESS:    5429504  HIT:    5427502  MISS:       2002
cpu0_DTLB PREFETCH  ACCESS:          0  HIT:          0  MISS:          0
cpu0_DTLB WRITEBACK ACCESS:          0  HIT:          0  MISS:          0
cpu0_DTLB TRANSLATION ACCESS:          0  HIT:          0  MISS:          0
cpu0_DTLB PREFETCH  REQUESTED:          0  ISSUED:          0  USEFUL:          0  USELESS:          0
cpu0_DTLB AVERAGE MISS LATENCY: 441.185 cycles
cpu0_ITLB TOTAL     ACCESS:    2048080  HIT:    2048062  MISS:         18
cpu0_ITLB LOAD      ACCESS:    2048080  HIT:    2048062  MISS:         18
cpu0_ITLB RFO       ACCESS:          0  HIT:          0  MISS:          0
cpu0_ITLB PREFETCH  ACCESS:          0  HIT:          0  MISS:          0
cpu0_ITLB WRITEBACK ACCESS:          0  HIT:          0  MISS:          0
cpu0_ITLB TRANSLATION ACCESS:          0  HIT:          0  MISS:          0
cpu0_ITLB PREFETCH  REQUESTED:          0  ISSUED:          0  USEFUL:          0  USELESS:          0
cpu0_ITLB AVERAGE MISS LATENCY: 249.444 cycles
cpu0_L1I TOTAL     ACCESS:    1722884  HIT:    1722454  MISS:        430
cpu0_L1I LOAD      ACCESS:    1722884  HIT:    1722454  MISS:        430
cpu0_L1I RFO       ACCESS:          0  HIT:          0  MISS:          0
cpu0_L1I PREFETCH  ACCESS:          0  HIT:          0  MISS:          0
cpu0_L1I WRITEBACK ACCESS:          0  HIT:          0  MISS:          0
cpu0_L1I TRANSLATION ACCESS:          0  HIT:          0  MISS:          0
cpu0_L1I PREFETCH  REQUESTED:          0  ISSUED:          0  USEFUL:          0  USELESS:          0
cpu0_L1I AVERAGE MISS LATENCY: 314.5 cycles
cpu0_STLB TOTAL     ACCESS:     199439  HIT:      33978  MISS:     165461
cpu0_STLB LOAD      ACCESS:     197437  HIT:      32670  MISS:     164767
cpu0_STLB RFO       ACCESS:       2002  HIT:       1308  MISS:        694
cpu0_STLB PREFETCH  ACCESS:          0  HIT:          0  MISS:          0
cpu0_STLB WRITEBACK ACCESS:          0  HIT:          0  MISS:          0
cpu0_STLB TRANSLATION ACCESS:          0  HIT:          0  MISS:          0
cpu0_STLB PREFETCH  REQUESTED:          0  ISSUED:          0  USEFUL:          0  USELESS:          0
cpu0_STLB AVERAGE MISS LATENCY: 520.801 cycles
cpu0_L1D TOTAL     ACCESS:   22810417  HIT:   19580426  MISS:    3229991
cpu0_L1D LOAD      ACCESS:   13713527  HIT:   10613835  MISS:    3099692
cpu0_L1D RFO       ACCESS:    9007270  HIT:    8879657  MISS:     127613
cpu0_L1D PREFETCH  ACCESS:          0  HIT:          0  MISS:          0
cpu0_L1D WRITEBACK ACCESS:          0  HIT:          0  MISS:          0
cpu0_L1D TRANSLATION ACCESS:      89620  HIT:      86934  MISS:       2686
cpu0_L1D PREFETCH  REQUESTED:          0  ISSUED:          0  USEFUL:          0  USELESS:          0
cpu0_L1D AVERAGE MISS LATENCY: 730.89 cycles
cpu0_L2C TOTAL     ACCESS:    4595253  HIT:    1423388  MISS:    3171865
cpu0_L2C LOAD      ACCESS:    3100122  HIT:      41013  MISS:    3059109
cpu0_L2C RFO       ACCESS:     127613  HIT:      15151  MISS:     112462
cpu0_L2C PREFETCH  ACCESS:          0  HIT:          0  MISS:          0
cpu0_L2C WRITEBACK ACCESS:    1364832  HIT:    1364732  MISS:        100
cpu0_L2C TRANSLATION ACCESS:       2686  HIT:       2492  MISS:        194
cpu0_L2C PREFETCH  REQUESTED:          0  ISSUED:          0  USEFUL:          0  USELESS:          0
cpu0_L2C AVERAGE MISS LATENCY: 733.109 cycles
LLC TOTAL     ACCESS:    4523037  HIT:     925698  MISS:    3597339
LLC LOAD      ACCESS:    3059106  HIT:     642444  MISS:    2416662
LLC RFO       ACCESS:     112462  HIT:      98453  MISS:      14009
LLC PREFETCH  ACCESS:          0  HIT:          0  MISS:          0
LLC WRITEBACK ACCESS:    1351275  HIT:     184695  MISS:    1166580
LLC TRANSLATION ACCESS:        194  HIT:        106  MISS:         88
LLC PREFETCH  REQUESTED:          0  ISSUED:          0  USEFUL:          0  USELESS:          0
LLC AVERAGE MISS LATENCY: 627.882 cycles
Insertion Distribution: 
	LOAD 598631 0 236090 1806680 
	RFO 1706 0 5484 6821 
	PREF 0 0 0 0 
	WRITEBACK 0 0 0 1278955 
	 13 0 55 38 
Total Prefetch Downgrades: 0

DRAM Statistics
 CHANNEL 0
 RQ ROW_BUFFER_HIT:      47888  ROW_BUFFER_MISS:    2382848
 DBUS AVG_CONGESTED_CYCLE:    3.99581
 WQ ROW_BUFFER_HIT:      25316  ROW_BUFFER_MISS:    1229434  FULL:      47231


CPU 0 Branch Prediction Accuracy: 98.929% MPKI: 0.55515 Average ROB Occupancy at Mispredict: 265.314
Branch type MPKI
BRANCH_DIRECT_JUMP: 0.00045
BRANCH_INDIRECT: 1e-05
BRANCH_CONDITIONAL: 0.5534
BRANCH_DIRECT_CALL: 0.00065
BRANCH_INDIRECT_CALL: 0
BRANCH_RETURN: 0.00064

