
*** ChampSim Multicore Out-of-Order Simulator ***

Warmup Instructions: 10000000
Simulation Instructions: 100000000
Number of CPUs: 1
Off-chip DRAM Size: 4 GiB Channels: 1 Width: 64-bit Data Rate: 3200 MT/s

VirtualMemory physical capacity: 8588881920 num_ppages: 2096895
VirtualMemory page size: 4096 log2_page_size: 12

CPU 0 runs /datasets/cs240c-wi22-a00-public/data/Assignment2/sphinx3_883B.trace.xz
CPU 0 Bimodal branch predictor
Basic BTB sets: 1024 ways: 8 indirect buffer size: 4096 RAS size: 64
Initialize SRRIP state
Heartbeat CPU 0 instructions: 10000003 cycles: 2628882 heartbeat IPC: 3.8039 cumulative IPC: 3.8039 (Simulation time: 0 hr 0 min 27 sec) 

Warmup complete CPU 0 instructions: 10000003 cycles: 2628882 (Simulation time: 0 hr 0 min 27 sec) 

Heartbeat CPU 0 instructions: 20000000 cycles: 14425838 heartbeat IPC: 0.847676 cumulative IPC: 0.847676 (Simulation time: 0 hr 1 min 22 sec) 
Heartbeat CPU 0 instructions: 30000000 cycles: 26787660 heartbeat IPC: 0.808942 cumulative IPC: 0.827856 (Simulation time: 0 hr 2 min 16 sec) 
Heartbeat CPU 0 instructions: 40000004 cycles: 38525422 heartbeat IPC: 0.851951 cumulative IPC: 0.835735 (Simulation time: 0 hr 3 min 8 sec) 
Heartbeat CPU 0 instructions: 50000003 cycles: 49995438 heartbeat IPC: 0.871838 cumulative IPC: 0.844478 (Simulation time: 0 hr 3 min 59 sec) 
Heartbeat CPU 0 instructions: 60000000 cycles: 60773079 heartbeat IPC: 0.927847 cumulative IPC: 0.859931 (Simulation time: 0 hr 4 min 49 sec) 
Heartbeat CPU 0 instructions: 70000000 cycles: 69565376 heartbeat IPC: 1.13736 cumulative IPC: 0.896372 (Simulation time: 0 hr 5 min 32 sec) 
Heartbeat CPU 0 instructions: 80000000 cycles: 79770286 heartbeat IPC: 0.97992 cumulative IPC: 0.907424 (Simulation time: 0 hr 6 min 20 sec) 
Heartbeat CPU 0 instructions: 90000002 cycles: 88178282 heartbeat IPC: 1.18934 cumulative IPC: 0.935132 (Simulation time: 0 hr 7 min 2 sec) 
Heartbeat CPU 0 instructions: 100000003 cycles: 95857134 heartbeat IPC: 1.30228 cumulative IPC: 0.965373 (Simulation time: 0 hr 7 min 42 sec) 
Heartbeat CPU 0 instructions: 110000003 cycles: 105531208 heartbeat IPC: 1.03369 cumulative IPC: 0.971795 (Simulation time: 0 hr 8 min 28 sec) 
Finished CPU 0 instructions: 100000000 cycles: 102902326 cumulative IPC: 0.971795 (Simulation time: 0 hr 8 min 28 sec) 

ChampSim completed all CPUs

Region of Interest Statistics

CPU 0 cumulative IPC: 0.971795 instructions: 100000000 cycles: 102902326
cpu0_DTLB TOTAL     ACCESS:   16870222  HIT:   16710290  MISS:     159932
cpu0_DTLB LOAD      ACCESS:   15526712  HIT:   15375048  MISS:     151664
cpu0_DTLB RFO       ACCESS:    1343510  HIT:    1335242  MISS:       8268
cpu0_DTLB PREFETCH  ACCESS:          0  HIT:          0  MISS:          0
cpu0_DTLB WRITEBACK ACCESS:          0  HIT:          0  MISS:          0
cpu0_DTLB TRANSLATION ACCESS:          0  HIT:          0  MISS:          0
cpu0_DTLB PREFETCH  REQUESTED:          0  ISSUED:          0  USEFUL:          0  USELESS:          0
cpu0_DTLB AVERAGE MISS LATENCY: 12.8495 cycles
cpu0_ITLB TOTAL     ACCESS:    9487344  HIT:    9487279  MISS:         65
cpu0_ITLB LOAD      ACCESS:    9487344  HIT:    9487279  MISS:         65
cpu0_ITLB RFO       ACCESS:          0  HIT:          0  MISS:          0
cpu0_ITLB PREFETCH  ACCESS:          0  HIT:          0  MISS:          0
cpu0_ITLB WRITEBACK ACCESS:          0  HIT:          0  MISS:          0
cpu0_ITLB TRANSLATION ACCESS:          0  HIT:          0  MISS:          0
cpu0_ITLB PREFETCH  REQUESTED:          0  ISSUED:          0  USEFUL:          0  USELESS:          0
cpu0_ITLB AVERAGE MISS LATENCY: 153.262 cycles
cpu0_L1I TOTAL     ACCESS:     192401  HIT:     191021  MISS:       1380
cpu0_L1I LOAD      ACCESS:     192401  HIT:     191021  MISS:       1380
cpu0_L1I RFO       ACCESS:          0  HIT:          0  MISS:          0
cpu0_L1I PREFETCH  ACCESS:          0  HIT:          0  MISS:          0
cpu0_L1I WRITEBACK ACCESS:          0  HIT:          0  MISS:          0
cpu0_L1I TRANSLATION ACCESS:          0  HIT:          0  MISS:          0
cpu0_L1I PREFETCH  REQUESTED:          0  ISSUED:          0  USEFUL:          0  USELESS:          0
cpu0_L1I AVERAGE MISS LATENCY: 203.868 cycles
cpu0_STLB TOTAL     ACCESS:     159997  HIT:      99101  MISS:      60896
cpu0_STLB LOAD      ACCESS:     151729  HIT:      92043  MISS:      59686
cpu0_STLB RFO       ACCESS:       8268  HIT:       7058  MISS:       1210
cpu0_STLB PREFETCH  ACCESS:          0  HIT:          0  MISS:          0
cpu0_STLB WRITEBACK ACCESS:          0  HIT:          0  MISS:          0
cpu0_STLB TRANSLATION ACCESS:          0  HIT:          0  MISS:          0
cpu0_STLB PREFETCH  REQUESTED:          0  ISSUED:          0  USEFUL:          0  USELESS:          0
cpu0_STLB AVERAGE MISS LATENCY: 10.1376 cycles
cpu0_L1D TOTAL     ACCESS:   12713577  HIT:   10964286  MISS:    1749291
cpu0_L1D LOAD      ACCESS:   10453546  HIT:    8819180  MISS:    1634366
cpu0_L1D RFO       ACCESS:    2201858  HIT:    2087726  MISS:     114132
cpu0_L1D PREFETCH  ACCESS:          0  HIT:          0  MISS:          0
cpu0_L1D WRITEBACK ACCESS:          0  HIT:          0  MISS:          0
cpu0_L1D TRANSLATION ACCESS:      58173  HIT:      57380  MISS:        793
cpu0_L1D PREFETCH  REQUESTED:          0  ISSUED:          0  USEFUL:          0  USELESS:          0
cpu0_L1D AVERAGE MISS LATENCY: 111.393 cycles
cpu0_L2C TOTAL     ACCESS:    1908248  HIT:     517691  MISS:    1390557
cpu0_L2C LOAD      ACCESS:    1635743  HIT:     346947  MISS:    1288796
cpu0_L2C RFO       ACCESS:     114127  HIT:      12984  MISS:     101143
cpu0_L2C PREFETCH  ACCESS:          0  HIT:          0  MISS:          0
cpu0_L2C WRITEBACK ACCESS:     157585  HIT:     157288  MISS:        297
cpu0_L2C TRANSLATION ACCESS:        793  HIT:        472  MISS:        321
cpu0_L2C PREFETCH  REQUESTED:          0  ISSUED:          0  USEFUL:          0  USELESS:          0
cpu0_L2C AVERAGE MISS LATENCY: 126.425 cycles
LLC TOTAL     ACCESS:    1524797  HIT:     783591  MISS:     741206
LLC LOAD      ACCESS:    1288796  HIT:     582698  MISS:     706098
LLC RFO       ACCESS:     101143  HIT:      78511  MISS:      22632
LLC PREFETCH  ACCESS:          0  HIT:          0  MISS:          0
LLC WRITEBACK ACCESS:     134537  HIT:     122121  MISS:      12416
LLC TRANSLATION ACCESS:        321  HIT:        261  MISS:         60
LLC PREFETCH  REQUESTED:          0  ISSUED:          0  USEFUL:          0  USELESS:          0
LLC AVERAGE MISS LATENCY: 197.736 cycles
Insertion Distribution: 
	LOAD 56956 0 145911 621818 
	RFO 9209 0 7347 11410 
	PREF 0 0 0 0 
	WRITEBACK 0 0 0 12655 
	 5 0 57 13 
Total Prefetch Downgrades: 0

DRAM Statistics
 CHANNEL 0
 RQ ROW_BUFFER_HIT:      64306  ROW_BUFFER_MISS:     663991
 DBUS AVG_CONGESTED_CYCLE:    3.82038
 WQ ROW_BUFFER_HIT:       8016  ROW_BUFFER_MISS:      21821  FULL:      11597


CPU 0 Branch Prediction Accuracy: 91.645% MPKI: 7.87682 Average ROB Occupancy at Mispredict: 157.137
Branch type MPKI
BRANCH_DIRECT_JUMP: 0.0017
BRANCH_INDIRECT: 0.00111
BRANCH_CONDITIONAL: 7.87013
BRANCH_DIRECT_CALL: 0.00166
BRANCH_INDIRECT_CALL: 0.0005
BRANCH_RETURN: 0.00172

