
*** ChampSim Multicore Out-of-Order Simulator ***

Warmup Instructions: 10000000
Simulation Instructions: 100000000
Number of CPUs: 1
Off-chip DRAM Size: 4 GiB Channels: 1 Width: 64-bit Data Rate: 3200 MT/s

VirtualMemory physical capacity: 8588881920 num_ppages: 2096895
VirtualMemory page size: 4096 log2_page_size: 12

CPU 0 runs /datasets/cs240c-wi22-a00-public/data/Assignment2/leslie3d_1116B.trace.xz
CPU 0 Bimodal branch predictor
Basic BTB sets: 1024 ways: 8 indirect buffer size: 4096 RAS size: 64
Initialize SRRIP state
Heartbeat CPU 0 instructions: 10000000 cycles: 3692436 heartbeat IPC: 2.70824 cumulative IPC: 2.70824 (Simulation time: 0 hr 0 min 45 sec) 

Warmup complete CPU 0 instructions: 10000005 cycles: 3692437 (Simulation time: 0 hr 0 min 45 sec) 

Heartbeat CPU 0 instructions: 20000000 cycles: 13627075 heartbeat IPC: 1.00658 cumulative IPC: 1.00658 (Simulation time: 0 hr 2 min 5 sec) 
Heartbeat CPU 0 instructions: 30000000 cycles: 23757212 heartbeat IPC: 0.987153 cumulative IPC: 0.996771 (Simulation time: 0 hr 3 min 29 sec) 
Heartbeat CPU 0 instructions: 40000003 cycles: 36652189 heartbeat IPC: 0.775496 cumulative IPC: 0.910201 (Simulation time: 0 hr 5 min 0 sec) 
Heartbeat CPU 0 instructions: 50000000 cycles: 57448646 heartbeat IPC: 0.480851 cumulative IPC: 0.7441 (Simulation time: 0 hr 7 min 4 sec) 
Heartbeat CPU 0 instructions: 60000001 cycles: 108449285 heartbeat IPC: 0.196076 cumulative IPC: 0.477296 (Simulation time: 0 hr 11 min 29 sec) 
Heartbeat CPU 0 instructions: 70000000 cycles: 124144311 heartbeat IPC: 0.637144 cumulative IPC: 0.498124 (Simulation time: 0 hr 13 min 23 sec) 
Heartbeat CPU 0 instructions: 80000001 cycles: 137353636 heartbeat IPC: 0.757041 cumulative IPC: 0.523712 (Simulation time: 0 hr 15 min 3 sec) 
Heartbeat CPU 0 instructions: 90000004 cycles: 151176697 heartbeat IPC: 0.723429 cumulative IPC: 0.542431 (Simulation time: 0 hr 16 min 46 sec) 
Heartbeat CPU 0 instructions: 100000002 cycles: 164502634 heartbeat IPC: 0.750416 cumulative IPC: 0.559666 (Simulation time: 0 hr 18 min 27 sec) 
Heartbeat CPU 0 instructions: 110000001 cycles: 187416498 heartbeat IPC: 0.436417 cumulative IPC: 0.544294 (Simulation time: 0 hr 20 min 44 sec) 
Finished CPU 0 instructions: 100000000 cycles: 183724063 cumulative IPC: 0.544295 (Simulation time: 0 hr 20 min 44 sec) 

ChampSim completed all CPUs

Region of Interest Statistics

CPU 0 cumulative IPC: 0.544295 instructions: 100000000 cycles: 183724063
cpu0_DTLB TOTAL     ACCESS:   25797687  HIT:   25731994  MISS:      65693
cpu0_DTLB LOAD      ACCESS:   21174195  HIT:   21122546  MISS:      51649
cpu0_DTLB RFO       ACCESS:    4623492  HIT:    4609448  MISS:      14044
cpu0_DTLB PREFETCH  ACCESS:          0  HIT:          0  MISS:          0
cpu0_DTLB WRITEBACK ACCESS:          0  HIT:          0  MISS:          0
cpu0_DTLB TRANSLATION ACCESS:          0  HIT:          0  MISS:          0
cpu0_DTLB PREFETCH  REQUESTED:          0  ISSUED:          0  USEFUL:          0  USELESS:          0
cpu0_DTLB AVERAGE MISS LATENCY: 82.2872 cycles
cpu0_ITLB TOTAL     ACCESS:    2873762  HIT:    2873744  MISS:         18
cpu0_ITLB LOAD      ACCESS:    2873762  HIT:    2873744  MISS:         18
cpu0_ITLB RFO       ACCESS:          0  HIT:          0  MISS:          0
cpu0_ITLB PREFETCH  ACCESS:          0  HIT:          0  MISS:          0
cpu0_ITLB WRITEBACK ACCESS:          0  HIT:          0  MISS:          0
cpu0_ITLB TRANSLATION ACCESS:          0  HIT:          0  MISS:          0
cpu0_ITLB PREFETCH  REQUESTED:          0  ISSUED:          0  USEFUL:          0  USELESS:          0
cpu0_ITLB AVERAGE MISS LATENCY: 418.056 cycles
cpu0_L1I TOTAL     ACCESS:    1781174  HIT:    1780702  MISS:        472
cpu0_L1I LOAD      ACCESS:    1781174  HIT:    1780702  MISS:        472
cpu0_L1I RFO       ACCESS:          0  HIT:          0  MISS:          0
cpu0_L1I PREFETCH  ACCESS:          0  HIT:          0  MISS:          0
cpu0_L1I WRITEBACK ACCESS:          0  HIT:          0  MISS:          0
cpu0_L1I TRANSLATION ACCESS:          0  HIT:          0  MISS:          0
cpu0_L1I PREFETCH  REQUESTED:          0  ISSUED:          0  USEFUL:          0  USELESS:          0
cpu0_L1I AVERAGE MISS LATENCY: 403.256 cycles
cpu0_STLB TOTAL     ACCESS:      65711  HIT:      34087  MISS:      31624
cpu0_STLB LOAD      ACCESS:      51667  HIT:      28201  MISS:      23466
cpu0_STLB RFO       ACCESS:      14044  HIT:       5886  MISS:       8158
cpu0_STLB PREFETCH  ACCESS:          0  HIT:          0  MISS:          0
cpu0_STLB WRITEBACK ACCESS:          0  HIT:          0  MISS:          0
cpu0_STLB TRANSLATION ACCESS:          0  HIT:          0  MISS:          0
cpu0_STLB PREFETCH  REQUESTED:          0  ISSUED:          0  USEFUL:          0  USELESS:          0
cpu0_STLB AVERAGE MISS LATENCY: 152.461 cycles
cpu0_L1D TOTAL     ACCESS:   24499511  HIT:   21089367  MISS:    3410144
cpu0_L1D LOAD      ACCESS:   16347032  HIT:   13729866  MISS:    2617166
cpu0_L1D RFO       ACCESS:    8123151  HIT:    7333814  MISS:     789337
cpu0_L1D PREFETCH  ACCESS:          0  HIT:          0  MISS:          0
cpu0_L1D WRITEBACK ACCESS:          0  HIT:          0  MISS:          0
cpu0_L1D TRANSLATION ACCESS:      29328  HIT:      25687  MISS:       3641
cpu0_L1D PREFETCH  REQUESTED:          0  ISSUED:          0  USEFUL:          0  USELESS:          0
cpu0_L1D AVERAGE MISS LATENCY: 511.255 cycles
cpu0_L2C TOTAL     ACCESS:    4455035  HIT:    1718257  MISS:    2736778
cpu0_L2C LOAD      ACCESS:    2617592  HIT:     507569  MISS:    2110023
cpu0_L2C RFO       ACCESS:     789251  HIT:     162765  MISS:     626486
cpu0_L2C PREFETCH  ACCESS:          0  HIT:          0  MISS:          0
cpu0_L2C WRITEBACK ACCESS:    1044551  HIT:    1044380  MISS:        171
cpu0_L2C TRANSLATION ACCESS:       3641  HIT:       3543  MISS:         98
cpu0_L2C PREFETCH  REQUESTED:          0  ISSUED:          0  USEFUL:          0  USELESS:          0
cpu0_L2C AVERAGE MISS LATENCY: 623.377 cycles
LLC TOTAL     ACCESS:    3497324  HIT:     687203  MISS:    2810121
LLC LOAD      ACCESS:    2110023  HIT:     401313  MISS:    1708710
LLC RFO       ACCESS:     626486  HIT:     126227  MISS:     500259
LLC PREFETCH  ACCESS:          0  HIT:          0  MISS:          0
LLC WRITEBACK ACCESS:     760717  HIT:     159640  MISS:     601077
LLC TRANSLATION ACCESS:         98  HIT:         23  MISS:         75
LLC PREFETCH  REQUESTED:          0  ISSUED:          0  USEFUL:          0  USELESS:          0
LLC AVERAGE MISS LATENCY: 586.619 cycles
Insertion Distribution: 
	LOAD 95867 0 207234 1518667 
	RFO 7867 0 19500 499294 
	PREF 0 0 0 0 
	WRITEBACK 0 0 0 620624 
	 2 0 47 41 
Total Prefetch Downgrades: 0

DRAM Statistics
 CHANNEL 0
 RQ ROW_BUFFER_HIT:     218677  ROW_BUFFER_MISS:    1990226
 DBUS AVG_CONGESTED_CYCLE:    3.96094
 WQ ROW_BUFFER_HIT:      63652  ROW_BUFFER_MISS:     578781  FULL:      29614


CPU 0 Branch Prediction Accuracy: 96.8713% MPKI: 1.55303 Average ROB Occupancy at Mispredict: 299.232
Branch type MPKI
BRANCH_DIRECT_JUMP: 0.00018
BRANCH_INDIRECT: 0
BRANCH_CONDITIONAL: 1.55065
BRANCH_DIRECT_CALL: 0.00113
BRANCH_INDIRECT_CALL: 0
BRANCH_RETURN: 0.00107

