
*** ChampSim Multicore Out-of-Order Simulator ***

Warmup Instructions: 10000000
Simulation Instructions: 100000000
Number of CPUs: 1
Off-chip DRAM Size: 4 GiB Channels: 1 Width: 64-bit Data Rate: 3200 MT/s

VirtualMemory physical capacity: 8588881920 num_ppages: 2096895
VirtualMemory page size: 4096 log2_page_size: 12

CPU 0 runs /datasets/cs240c-wi22-a00-public/data/Assignment2/leslie3d_1186B.trace.xz
CPU 0 Bimodal branch predictor
Basic BTB sets: 1024 ways: 8 indirect buffer size: 4096 RAS size: 64
Initialize SRRIP state
Heartbeat CPU 0 instructions: 10000000 cycles: 4308797 heartbeat IPC: 2.32083 cumulative IPC: 2.32083 (Simulation time: 0 hr 0 min 58 sec) 

Warmup complete CPU 0 instructions: 10000005 cycles: 4308798 (Simulation time: 0 hr 0 min 58 sec) 

Heartbeat CPU 0 instructions: 20000000 cycles: 17927341 heartbeat IPC: 0.734293 cumulative IPC: 0.734293 (Simulation time: 0 hr 2 min 38 sec) 
Heartbeat CPU 0 instructions: 30000000 cycles: 31861516 heartbeat IPC: 0.71766 cumulative IPC: 0.725881 (Simulation time: 0 hr 4 min 20 sec) 
Heartbeat CPU 0 instructions: 40000004 cycles: 45842332 heartbeat IPC: 0.715266 cumulative IPC: 0.722308 (Simulation time: 0 hr 6 min 2 sec) 
Heartbeat CPU 0 instructions: 50000001 cycles: 62246095 heartbeat IPC: 0.609616 cumulative IPC: 0.690401 (Simulation time: 0 hr 7 min 45 sec) 
Heartbeat CPU 0 instructions: 60000000 cycles: 97246616 heartbeat IPC: 0.28571 cumulative IPC: 0.537994 (Simulation time: 0 hr 10 min 50 sec) 
Heartbeat CPU 0 instructions: 70000000 cycles: 126056478 heartbeat IPC: 0.347103 cumulative IPC: 0.492822 (Simulation time: 0 hr 13 min 34 sec) 
Heartbeat CPU 0 instructions: 80000003 cycles: 136341424 heartbeat IPC: 0.972295 cumulative IPC: 0.530172 (Simulation time: 0 hr 14 min 58 sec) 
Heartbeat CPU 0 instructions: 90000002 cycles: 146519003 heartbeat IPC: 0.982552 cumulative IPC: 0.562548 (Simulation time: 0 hr 16 min 22 sec) 
Heartbeat CPU 0 instructions: 100000000 cycles: 156683905 heartbeat IPC: 0.983777 cumulative IPC: 0.590648 (Simulation time: 0 hr 17 min 46 sec) 
Heartbeat CPU 0 instructions: 110000000 cycles: 166878260 heartbeat IPC: 0.980935 cumulative IPC: 0.615122 (Simulation time: 0 hr 19 min 10 sec) 
Finished CPU 0 instructions: 100000000 cycles: 162569463 cumulative IPC: 0.615122 (Simulation time: 0 hr 19 min 10 sec) 

ChampSim completed all CPUs

Region of Interest Statistics

CPU 0 cumulative IPC: 0.615122 instructions: 100000000 cycles: 162569463
cpu0_DTLB TOTAL     ACCESS:   27957894  HIT:   27860272  MISS:      97622
cpu0_DTLB LOAD      ACCESS:   23291845  HIT:   23205974  MISS:      85871
cpu0_DTLB RFO       ACCESS:    4666049  HIT:    4654298  MISS:      11751
cpu0_DTLB PREFETCH  ACCESS:          0  HIT:          0  MISS:          0
cpu0_DTLB WRITEBACK ACCESS:          0  HIT:          0  MISS:          0
cpu0_DTLB TRANSLATION ACCESS:          0  HIT:          0  MISS:          0
cpu0_DTLB PREFETCH  REQUESTED:          0  ISSUED:          0  USEFUL:          0  USELESS:          0
cpu0_DTLB AVERAGE MISS LATENCY: 51.7592 cycles
cpu0_ITLB TOTAL     ACCESS:    2920523  HIT:    2920510  MISS:         13
cpu0_ITLB LOAD      ACCESS:    2920523  HIT:    2920510  MISS:         13
cpu0_ITLB RFO       ACCESS:          0  HIT:          0  MISS:          0
cpu0_ITLB PREFETCH  ACCESS:          0  HIT:          0  MISS:          0
cpu0_ITLB WRITEBACK ACCESS:          0  HIT:          0  MISS:          0
cpu0_ITLB TRANSLATION ACCESS:          0  HIT:          0  MISS:          0
cpu0_ITLB PREFETCH  REQUESTED:          0  ISSUED:          0  USEFUL:          0  USELESS:          0
cpu0_ITLB AVERAGE MISS LATENCY: 300.462 cycles
cpu0_L1I TOTAL     ACCESS:    1737648  HIT:    1737268  MISS:        380
cpu0_L1I LOAD      ACCESS:    1737648  HIT:    1737268  MISS:        380
cpu0_L1I RFO       ACCESS:          0  HIT:          0  MISS:          0
cpu0_L1I PREFETCH  ACCESS:          0  HIT:          0  MISS:          0
cpu0_L1I WRITEBACK ACCESS:          0  HIT:          0  MISS:          0
cpu0_L1I TRANSLATION ACCESS:          0  HIT:          0  MISS:          0
cpu0_L1I PREFETCH  REQUESTED:          0  ISSUED:          0  USEFUL:          0  USELESS:          0
cpu0_L1I AVERAGE MISS LATENCY: 344.663 cycles
cpu0_STLB TOTAL     ACCESS:      97635  HIT:      70233  MISS:      27402
cpu0_STLB LOAD      ACCESS:      85884  HIT:      63157  MISS:      22727
cpu0_STLB RFO       ACCESS:      11751  HIT:       7076  MISS:       4675
cpu0_STLB PREFETCH  ACCESS:          0  HIT:          0  MISS:          0
cpu0_STLB WRITEBACK ACCESS:          0  HIT:          0  MISS:          0
cpu0_STLB TRANSLATION ACCESS:          0  HIT:          0  MISS:          0
cpu0_STLB PREFETCH  REQUESTED:          0  ISSUED:          0  USEFUL:          0  USELESS:          0
cpu0_STLB AVERAGE MISS LATENCY: 152.417 cycles
cpu0_L1D TOTAL     ACCESS:   27007718  HIT:   23104779  MISS:    3902939
cpu0_L1D LOAD      ACCESS:   17785954  HIT:   14601990  MISS:    3183964
cpu0_L1D RFO       ACCESS:    9197171  HIT:    8481637  MISS:     715534
cpu0_L1D PREFETCH  ACCESS:          0  HIT:          0  MISS:          0
cpu0_L1D WRITEBACK ACCESS:          0  HIT:          0  MISS:          0
cpu0_L1D TRANSLATION ACCESS:      24593  HIT:      21152  MISS:       3441
cpu0_L1D PREFETCH  REQUESTED:          0  ISSUED:          0  USEFUL:          0  USELESS:          0
cpu0_L1D AVERAGE MISS LATENCY: 354.386 cycles
cpu0_L2C TOTAL     ACCESS:    4956472  HIT:    2399428  MISS:    2557044
cpu0_L2C LOAD      ACCESS:    3184296  HIT:    1037341  MISS:    2146955
cpu0_L2C RFO       ACCESS:     715223  HIT:     307553  MISS:     407670
cpu0_L2C PREFETCH  ACCESS:          0  HIT:          0  MISS:          0
cpu0_L2C WRITEBACK ACCESS:    1053512  HIT:    1051303  MISS:       2209
cpu0_L2C TRANSLATION ACCESS:       3441  HIT:       3231  MISS:        210
cpu0_L2C PREFETCH  REQUESTED:          0  ISSUED:          0  USEFUL:          0  USELESS:          0
cpu0_L2C AVERAGE MISS LATENCY: 524.121 cycles
LLC TOTAL     ACCESS:    3217170  HIT:     852526  MISS:    2364644
LLC LOAD      ACCESS:    2146946  HIT:     542309  MISS:    1604637
LLC RFO       ACCESS:     407658  HIT:     116856  MISS:     290802
LLC PREFETCH  ACCESS:          0  HIT:          0  MISS:          0
LLC WRITEBACK ACCESS:     662356  HIT:     193169  MISS:     469187
LLC TRANSLATION ACCESS:        210  HIT:        192  MISS:         18
LLC PREFETCH  REQUESTED:          0  ISSUED:          0  USEFUL:          0  USELESS:          0
LLC AVERAGE MISS LATENCY: 544.028 cycles
Insertion Distribution: 
	LOAD 173987 0 293768 1303313 
	RFO 514 0 34781 258997 
	PREF 0 0 0 0 
	WRITEBACK 0 0 0 487653 
	 2 0 33 2 
Total Prefetch Downgrades: 0

DRAM Statistics
 CHANNEL 0
 RQ ROW_BUFFER_HIT:     219526  ROW_BUFFER_MISS:    1675866
 DBUS AVG_CONGESTED_CYCLE:    3.94831
 WQ ROW_BUFFER_HIT:      40821  ROW_BUFFER_MISS:     487872  FULL:      23942


CPU 0 Branch Prediction Accuracy: 96.8384% MPKI: 1.47634 Average ROB Occupancy at Mispredict: 311.362
Branch type MPKI
BRANCH_DIRECT_JUMP: 0.00016
BRANCH_INDIRECT: 0
BRANCH_CONDITIONAL: 1.47504
BRANCH_DIRECT_CALL: 0.00057
BRANCH_INDIRECT_CALL: 0
BRANCH_RETURN: 0.00057

