
*** ChampSim Multicore Out-of-Order Simulator ***

Warmup Instructions: 10000000
Simulation Instructions: 100000000
Number of CPUs: 1
Off-chip DRAM Size: 4 GiB Channels: 1 Width: 64-bit Data Rate: 3200 MT/s

VirtualMemory physical capacity: 8588881920 num_ppages: 2096895
VirtualMemory page size: 4096 log2_page_size: 12

CPU 0 runs /datasets/cs240c-wi22-a00-public/data/Assignment2/GemsFDTD_109B.trace.xz
CPU 0 Bimodal branch predictor
Basic BTB sets: 1024 ways: 8 indirect buffer size: 4096 RAS size: 64
Initialize SRRIP state
Heartbeat CPU 0 instructions: 10000002 cycles: 4294004 heartbeat IPC: 2.32883 cumulative IPC: 2.32883 (Simulation time: 0 hr 1 min 10 sec) 

Warmup complete CPU 0 instructions: 10000002 cycles: 4294004 (Simulation time: 0 hr 1 min 10 sec) 

Heartbeat CPU 0 instructions: 20000000 cycles: 35568514 heartbeat IPC: 0.319749 cumulative IPC: 0.319749 (Simulation time: 0 hr 5 min 6 sec) 
Heartbeat CPU 0 instructions: 30000004 cycles: 55928278 heartbeat IPC: 0.491165 cumulative IPC: 0.38734 (Simulation time: 0 hr 7 min 22 sec) 
Heartbeat CPU 0 instructions: 40000004 cycles: 62016027 heartbeat IPC: 1.64264 cumulative IPC: 0.519732 (Simulation time: 0 hr 8 min 19 sec) 
Heartbeat CPU 0 instructions: 50000002 cycles: 82724788 heartbeat IPC: 0.482887 cumulative IPC: 0.510004 (Simulation time: 0 hr 10 min 43 sec) 
Heartbeat CPU 0 instructions: 60000002 cycles: 125365189 heartbeat IPC: 0.234519 cumulative IPC: 0.41298 (Simulation time: 0 hr 15 min 38 sec) 
Heartbeat CPU 0 instructions: 70000001 cycles: 166572702 heartbeat IPC: 0.242674 cumulative IPC: 0.369734 (Simulation time: 0 hr 20 min 24 sec) 
Heartbeat CPU 0 instructions: 80000004 cycles: 207804124 heartbeat IPC: 0.242534 cumulative IPC: 0.343963 (Simulation time: 0 hr 25 min 9 sec) 
Heartbeat CPU 0 instructions: 90000000 cycles: 248860272 heartbeat IPC: 0.243569 cumulative IPC: 0.32711 (Simulation time: 0 hr 29 min 48 sec) 
Heartbeat CPU 0 instructions: 100000003 cycles: 290012330 heartbeat IPC: 0.243001 cumulative IPC: 0.314996 (Simulation time: 0 hr 34 min 15 sec) 
Heartbeat CPU 0 instructions: 110000004 cycles: 331227571 heartbeat IPC: 0.242629 cumulative IPC: 0.305873 (Simulation time: 0 hr 38 min 41 sec) 
Finished CPU 0 instructions: 100000002 cycles: 326933567 cumulative IPC: 0.305873 (Simulation time: 0 hr 38 min 41 sec) 

ChampSim completed all CPUs

Region of Interest Statistics

CPU 0 cumulative IPC: 0.305873 instructions: 100000002 cycles: 326933567
cpu0_DTLB TOTAL     ACCESS:   26481725  HIT:   26282297  MISS:     199428
cpu0_DTLB LOAD      ACCESS:   21053182  HIT:   20855756  MISS:     197426
cpu0_DTLB RFO       ACCESS:    5428543  HIT:    5426541  MISS:       2002
cpu0_DTLB PREFETCH  ACCESS:          0  HIT:          0  MISS:          0
cpu0_DTLB WRITEBACK ACCESS:          0  HIT:          0  MISS:          0
cpu0_DTLB TRANSLATION ACCESS:          0  HIT:          0  MISS:          0
cpu0_DTLB PREFETCH  REQUESTED:          0  ISSUED:          0  USEFUL:          0  USELESS:          0
cpu0_DTLB AVERAGE MISS LATENCY: 435.297 cycles
cpu0_ITLB TOTAL     ACCESS:    2068921  HIT:    2068903  MISS:         18
cpu0_ITLB LOAD      ACCESS:    2068921  HIT:    2068903  MISS:         18
cpu0_ITLB RFO       ACCESS:          0  HIT:          0  MISS:          0
cpu0_ITLB PREFETCH  ACCESS:          0  HIT:          0  MISS:          0
cpu0_ITLB WRITEBACK ACCESS:          0  HIT:          0  MISS:          0
cpu0_ITLB TRANSLATION ACCESS:          0  HIT:          0  MISS:          0
cpu0_ITLB PREFETCH  REQUESTED:          0  ISSUED:          0  USEFUL:          0  USELESS:          0
cpu0_ITLB AVERAGE MISS LATENCY: 246.056 cycles
cpu0_L1I TOTAL     ACCESS:    1723025  HIT:    1722595  MISS:        430
cpu0_L1I LOAD      ACCESS:    1723025  HIT:    1722595  MISS:        430
cpu0_L1I RFO       ACCESS:          0  HIT:          0  MISS:          0
cpu0_L1I PREFETCH  ACCESS:          0  HIT:          0  MISS:          0
cpu0_L1I WRITEBACK ACCESS:          0  HIT:          0  MISS:          0
cpu0_L1I TRANSLATION ACCESS:          0  HIT:          0  MISS:          0
cpu0_L1I PREFETCH  REQUESTED:          0  ISSUED:          0  USEFUL:          0  USELESS:          0
cpu0_L1I AVERAGE MISS LATENCY: 308.935 cycles
cpu0_STLB TOTAL     ACCESS:     199446  HIT:      33985  MISS:     165461
cpu0_STLB LOAD      ACCESS:     197444  HIT:      32677  MISS:     164767
cpu0_STLB RFO       ACCESS:       2002  HIT:       1308  MISS:        694
cpu0_STLB PREFETCH  ACCESS:          0  HIT:          0  MISS:          0
cpu0_STLB WRITEBACK ACCESS:          0  HIT:          0  MISS:          0
cpu0_STLB TRANSLATION ACCESS:          0  HIT:          0  MISS:          0
cpu0_STLB PREFETCH  REQUESTED:          0  ISSUED:          0  USEFUL:          0  USELESS:          0
cpu0_STLB AVERAGE MISS LATENCY: 513.72 cycles
cpu0_L1D TOTAL     ACCESS:   22505606  HIT:   19275571  MISS:    3230035
cpu0_L1D LOAD      ACCESS:   13407809  HIT:   10308079  MISS:    3099730
cpu0_L1D RFO       ACCESS:    9007995  HIT:    8880382  MISS:     127613
cpu0_L1D PREFETCH  ACCESS:          0  HIT:          0  MISS:          0
cpu0_L1D WRITEBACK ACCESS:          0  HIT:          0  MISS:          0
cpu0_L1D TRANSLATION ACCESS:      89802  HIT:      87110  MISS:       2692
cpu0_L1D PREFETCH  REQUESTED:          0  ISSUED:          0  USEFUL:          0  USELESS:          0
cpu0_L1D AVERAGE MISS LATENCY: 795.673 cycles
cpu0_L2C TOTAL     ACCESS:    4595297  HIT:    1423475  MISS:    3171822
cpu0_L2C LOAD      ACCESS:    3100160  HIT:      41086  MISS:    3059074
cpu0_L2C RFO       ACCESS:     127613  HIT:      15163  MISS:     112450
cpu0_L2C PREFETCH  ACCESS:          0  HIT:          0  MISS:          0
cpu0_L2C WRITEBACK ACCESS:    1364832  HIT:    1364732  MISS:        100
cpu0_L2C TRANSLATION ACCESS:       2692  HIT:       2494  MISS:        198
cpu0_L2C PREFETCH  REQUESTED:          0  ISSUED:          0  USEFUL:          0  USELESS:          0
cpu0_L2C AVERAGE MISS LATENCY: 799.099 cycles
LLC TOTAL     ACCESS:    4522976  HIT:     735700  MISS:    3787276
LLC LOAD      ACCESS:    3059067  HIT:     436083  MISS:    2622984
LLC RFO       ACCESS:     112450  HIT:     102819  MISS:       9631
LLC PREFETCH  ACCESS:          0  HIT:          0  MISS:          0
LLC WRITEBACK ACCESS:    1351261  HIT:     196682  MISS:    1154579
LLC TRANSLATION ACCESS:        198  HIT:        116  MISS:         82
LLC PREFETCH  REQUESTED:          0  ISSUED:          0  USEFUL:          0  USELESS:          0
LLC AVERAGE MISS LATENCY: 651.65 cycles
Insertion Distribution: 
	LOAD 14858 0 830233 2006056 
	RFO 8 0 6981 2644 
	PREF 0 0 0 0 
	WRITEBACK 0 0 0 1266964 
	 0 0 68 32 
Total Prefetch Downgrades: 0

DRAM Statistics
 CHANNEL 0
 RQ ROW_BUFFER_HIT:      44799  ROW_BUFFER_MISS:    2587895
 DBUS AVG_CONGESTED_CYCLE:    3.99655
 WQ ROW_BUFFER_HIT:      23249  ROW_BUFFER_MISS:    1227813  FULL:      68661


CPU 0 Branch Prediction Accuracy: 98.929% MPKI: 0.55515 Average ROB Occupancy at Mispredict: 264.34
Branch type MPKI
BRANCH_DIRECT_JUMP: 0.00045
BRANCH_INDIRECT: 1e-05
BRANCH_CONDITIONAL: 0.5534
BRANCH_DIRECT_CALL: 0.00065
BRANCH_INDIRECT_CALL: 0
BRANCH_RETURN: 0.00064

