
*** ChampSim Multicore Out-of-Order Simulator ***

Warmup Instructions: 10000000
Simulation Instructions: 100000000
Number of CPUs: 1
Off-chip DRAM Size: 4 GiB Channels: 1 Width: 64-bit Data Rate: 3200 MT/s

VirtualMemory physical capacity: 8588881920 num_ppages: 2096895
VirtualMemory page size: 4096 log2_page_size: 12

CPU 0 runs /datasets/cs240c-wi22-a00-public/data/Assignment2/GemsFDTD_716B.trace.xz
CPU 0 Bimodal branch predictor
Basic BTB sets: 1024 ways: 8 indirect buffer size: 4096 RAS size: 64
Initialize SRRIP state
Heartbeat CPU 0 instructions: 10000004 cycles: 2536409 heartbeat IPC: 3.94258 cumulative IPC: 3.94258 (Simulation time: 0 hr 0 min 29 sec) 

Warmup complete CPU 0 instructions: 10000004 cycles: 2536409 (Simulation time: 0 hr 0 min 29 sec) 

Heartbeat CPU 0 instructions: 20000003 cycles: 24853388 heartbeat IPC: 0.448089 cumulative IPC: 0.448089 (Simulation time: 0 hr 2 min 48 sec) 
Heartbeat CPU 0 instructions: 30000002 cycles: 38611563 heartbeat IPC: 0.72684 cumulative IPC: 0.554398 (Simulation time: 0 hr 4 min 29 sec) 
Heartbeat CPU 0 instructions: 40000000 cycles: 49986702 heartbeat IPC: 0.87911 cumulative IPC: 0.63224 (Simulation time: 0 hr 6 min 1 sec) 
Heartbeat CPU 0 instructions: 50000002 cycles: 67816904 heartbeat IPC: 0.560846 cumulative IPC: 0.61274 (Simulation time: 0 hr 8 min 8 sec) 
Heartbeat CPU 0 instructions: 60000002 cycles: 83307586 heartbeat IPC: 0.645549 cumulative IPC: 0.619033 (Simulation time: 0 hr 10 min 0 sec) 
Heartbeat CPU 0 instructions: 70000001 cycles: 95329751 heartbeat IPC: 0.831797 cumulative IPC: 0.646598 (Simulation time: 0 hr 11 min 40 sec) 
Heartbeat CPU 0 instructions: 80000003 cycles: 109915945 heartbeat IPC: 0.68558 cumulative IPC: 0.651893 (Simulation time: 0 hr 13 min 36 sec) 
Heartbeat CPU 0 instructions: 90000001 cycles: 128030942 heartbeat IPC: 0.552029 cumulative IPC: 0.637478 (Simulation time: 0 hr 15 min 45 sec) 
Heartbeat CPU 0 instructions: 100000001 cycles: 140789852 heartbeat IPC: 0.783766 cumulative IPC: 0.650978 (Simulation time: 0 hr 17 min 30 sec) 
Heartbeat CPU 0 instructions: 110000004 cycles: 152186770 heartbeat IPC: 0.87743 cumulative IPC: 0.668224 (Simulation time: 0 hr 19 min 9 sec) 
Finished CPU 0 instructions: 100000000 cycles: 149650361 cumulative IPC: 0.668224 (Simulation time: 0 hr 19 min 9 sec) 

ChampSim completed all CPUs

Region of Interest Statistics

CPU 0 cumulative IPC: 0.668224 instructions: 100000000 cycles: 149650361
cpu0_DTLB TOTAL     ACCESS:   29893499  HIT:   26863648  MISS:    3029851
cpu0_DTLB LOAD      ACCESS:   20911950  HIT:   17882969  MISS:    3028981
cpu0_DTLB RFO       ACCESS:    8981549  HIT:    8980679  MISS:        870
cpu0_DTLB PREFETCH  ACCESS:          0  HIT:          0  MISS:          0
cpu0_DTLB WRITEBACK ACCESS:          0  HIT:          0  MISS:          0
cpu0_DTLB TRANSLATION ACCESS:          0  HIT:          0  MISS:          0
cpu0_DTLB PREFETCH  REQUESTED:          0  ISSUED:          0  USEFUL:          0  USELESS:          0
cpu0_DTLB AVERAGE MISS LATENCY: 13.8433 cycles
cpu0_ITLB TOTAL     ACCESS:    1847784  HIT:    1847782  MISS:          2
cpu0_ITLB LOAD      ACCESS:    1847784  HIT:    1847782  MISS:          2
cpu0_ITLB RFO       ACCESS:          0  HIT:          0  MISS:          0
cpu0_ITLB PREFETCH  ACCESS:          0  HIT:          0  MISS:          0
cpu0_ITLB WRITEBACK ACCESS:          0  HIT:          0  MISS:          0
cpu0_ITLB TRANSLATION ACCESS:          0  HIT:          0  MISS:          0
cpu0_ITLB PREFETCH  REQUESTED:          0  ISSUED:          0  USEFUL:          0  USELESS:          0
cpu0_ITLB AVERAGE MISS LATENCY: 383 cycles
cpu0_L1I TOTAL     ACCESS:    7855539  HIT:    7855417  MISS:        122
cpu0_L1I LOAD      ACCESS:    7855539  HIT:    7855417  MISS:        122
cpu0_L1I RFO       ACCESS:          0  HIT:          0  MISS:          0
cpu0_L1I PREFETCH  ACCESS:          0  HIT:          0  MISS:          0
cpu0_L1I WRITEBACK ACCESS:          0  HIT:          0  MISS:          0
cpu0_L1I TRANSLATION ACCESS:          0  HIT:          0  MISS:          0
cpu0_L1I PREFETCH  REQUESTED:          0  ISSUED:          0  USEFUL:          0  USELESS:          0
cpu0_L1I AVERAGE MISS LATENCY: 270.27 cycles
cpu0_STLB TOTAL     ACCESS:    3029854  HIT:    2757397  MISS:     272457
cpu0_STLB LOAD      ACCESS:    3028984  HIT:    2756527  MISS:     272457
cpu0_STLB RFO       ACCESS:        870  HIT:        870  MISS:          0
cpu0_STLB PREFETCH  ACCESS:          0  HIT:          0  MISS:          0
cpu0_STLB WRITEBACK ACCESS:          0  HIT:          0  MISS:          0
cpu0_STLB TRANSLATION ACCESS:          0  HIT:          0  MISS:          0
cpu0_STLB PREFETCH  REQUESTED:          0  ISSUED:          0  USEFUL:          0  USELESS:          0
cpu0_STLB AVERAGE MISS LATENCY: 51.4725 cycles
cpu0_L1D TOTAL     ACCESS:   34790457  HIT:   26547648  MISS:    8242809
cpu0_L1D LOAD      ACCESS:   22656352  HIT:   14437151  MISS:    8219201
cpu0_L1D RFO       ACCESS:   11866978  HIT:   11866972  MISS:          6
cpu0_L1D PREFETCH  ACCESS:          0  HIT:          0  MISS:          0
cpu0_L1D WRITEBACK ACCESS:          0  HIT:          0  MISS:          0
cpu0_L1D TRANSLATION ACCESS:     267127  HIT:     243525  MISS:      23602
cpu0_L1D PREFETCH  REQUESTED:          0  ISSUED:          0  USEFUL:          0  USELESS:          0
cpu0_L1D AVERAGE MISS LATENCY: 68.5696 cycles
cpu0_L2C TOTAL     ACCESS:    9425515  HIT:    7934658  MISS:    1490857
cpu0_L2C LOAD      ACCESS:    8219323  HIT:    6729095  MISS:    1490228
cpu0_L2C RFO       ACCESS:          6  HIT:          6  MISS:          0
cpu0_L2C PREFETCH  ACCESS:          0  HIT:          0  MISS:          0
cpu0_L2C WRITEBACK ACCESS:    1182584  HIT:    1182544  MISS:         40
cpu0_L2C TRANSLATION ACCESS:      23602  HIT:      23013  MISS:        589
cpu0_L2C PREFETCH  REQUESTED:          0  ISSUED:          0  USEFUL:          0  USELESS:          0
cpu0_L2C AVERAGE MISS LATENCY: 316.404 cycles
LLC TOTAL     ACCESS:    1524703  HIT:     103838  MISS:    1420865
LLC LOAD      ACCESS:    1490115  HIT:      70503  MISS:    1419612
LLC RFO       ACCESS:          0  HIT:          0  MISS:          0
LLC PREFETCH  ACCESS:          0  HIT:          0  MISS:          0
LLC WRITEBACK ACCESS:      33999  HIT:      32962  MISS:       1037
LLC TRANSLATION ACCESS:        589  HIT:        373  MISS:        216
LLC PREFETCH  REQUESTED:          0  ISSUED:          0  USEFUL:          0  USELESS:          0
LLC AVERAGE MISS LATENCY: 309.958 cycles
Insertion Distribution: 
	LOAD 19216 0 426806 1043779 
	RFO 0 0 14461 0 
	PREF 0 0 0 0 
	WRITEBACK 0 0 0 1163 
	 1 0 123 126 
Total Prefetch Downgrades: 0

DRAM Statistics
 CHANNEL 0
 RQ ROW_BUFFER_HIT:         73  ROW_BUFFER_MISS:    1419741
 DBUS AVG_CONGESTED_CYCLE:    3.95051
 WQ ROW_BUFFER_HIT:       1242  ROW_BUFFER_MISS:      12241  FULL:          0


CPU 0 Branch Prediction Accuracy: 98.9038% MPKI: 0.06477 Average ROB Occupancy at Mispredict: 248.546
Branch type MPKI
BRANCH_DIRECT_JUMP: 0
BRANCH_INDIRECT: 0
BRANCH_CONDITIONAL: 0.06477
BRANCH_DIRECT_CALL: 0
BRANCH_INDIRECT_CALL: 0
BRANCH_RETURN: 0

