
*** ChampSim Multicore Out-of-Order Simulator ***

Warmup Instructions: 10000000
Simulation Instructions: 100000000
Number of CPUs: 1
Off-chip DRAM Size: 4 GiB Channels: 1 Width: 64-bit Data Rate: 3200 MT/s

VirtualMemory physical capacity: 8588881920 num_ppages: 2096895
VirtualMemory page size: 4096 log2_page_size: 12

CPU 0 runs /datasets/cs240c-wi22-a00-public/data/Assignment2/bzip2_259B.trace.xz
CPU 0 Bimodal branch predictor
Basic BTB sets: 1024 ways: 8 indirect buffer size: 4096 RAS size: 64
Initialize SRRIP state
Heartbeat CPU 0 instructions: 10000002 cycles: 2535454 heartbeat IPC: 3.94407 cumulative IPC: 3.94407 (Simulation time: 0 hr 0 min 25 sec) 

Warmup complete CPU 0 instructions: 10000002 cycles: 2535454 (Simulation time: 0 hr 0 min 25 sec) 

Heartbeat CPU 0 instructions: 20000004 cycles: 9018848 heartbeat IPC: 1.5424 cumulative IPC: 1.5424 (Simulation time: 0 hr 1 min 21 sec) 
Heartbeat CPU 0 instructions: 30000002 cycles: 14452314 heartbeat IPC: 1.84045 cumulative IPC: 1.67829 (Simulation time: 0 hr 2 min 7 sec) 
Heartbeat CPU 0 instructions: 40000003 cycles: 21151391 heartbeat IPC: 1.49274 cumulative IPC: 1.61152 (Simulation time: 0 hr 2 min 44 sec) 
Heartbeat CPU 0 instructions: 50000003 cycles: 29352949 heartbeat IPC: 1.21928 cumulative IPC: 1.49156 (Simulation time: 0 hr 3 min 11 sec) 
Heartbeat CPU 0 instructions: 60000001 cycles: 37204377 heartbeat IPC: 1.27365 cumulative IPC: 1.44221 (Simulation time: 0 hr 3 min 40 sec) 
Heartbeat CPU 0 instructions: 70000004 cycles: 42718468 heartbeat IPC: 1.81354 cumulative IPC: 1.49317 (Simulation time: 0 hr 4 min 28 sec) 
Heartbeat CPU 0 instructions: 80000004 cycles: 49218751 heartbeat IPC: 1.53839 cumulative IPC: 1.49947 (Simulation time: 0 hr 5 min 19 sec) 
Heartbeat CPU 0 instructions: 90000001 cycles: 55521152 heartbeat IPC: 1.5867 cumulative IPC: 1.50984 (Simulation time: 0 hr 6 min 3 sec) 
Heartbeat CPU 0 instructions: 100000000 cycles: 63920547 heartbeat IPC: 1.19056 cumulative IPC: 1.46615 (Simulation time: 0 hr 6 min 30 sec) 
Heartbeat CPU 0 instructions: 110000000 cycles: 71898488 heartbeat IPC: 1.25346 cumulative IPC: 1.44169 (Simulation time: 0 hr 6 min 58 sec) 
Finished CPU 0 instructions: 100000003 cycles: 69363039 cumulative IPC: 1.44169 (Simulation time: 0 hr 6 min 58 sec) 

ChampSim completed all CPUs

Region of Interest Statistics

CPU 0 cumulative IPC: 1.44169 instructions: 100000003 cycles: 69363039
cpu0_DTLB TOTAL     ACCESS:   18628734  HIT:   17967461  MISS:     661273
cpu0_DTLB LOAD      ACCESS:    9570783  HIT:    8913427  MISS:     657356
cpu0_DTLB RFO       ACCESS:    9057951  HIT:    9054034  MISS:       3917
cpu0_DTLB PREFETCH  ACCESS:          0  HIT:          0  MISS:          0
cpu0_DTLB WRITEBACK ACCESS:          0  HIT:          0  MISS:          0
cpu0_DTLB TRANSLATION ACCESS:          0  HIT:          0  MISS:          0
cpu0_DTLB PREFETCH  REQUESTED:          0  ISSUED:          0  USEFUL:          0  USELESS:          0
cpu0_DTLB AVERAGE MISS LATENCY: 9.26315 cycles
cpu0_ITLB TOTAL     ACCESS:    6782963  HIT:    6782960  MISS:          3
cpu0_ITLB LOAD      ACCESS:    6782963  HIT:    6782960  MISS:          3
cpu0_ITLB RFO       ACCESS:          0  HIT:          0  MISS:          0
cpu0_ITLB PREFETCH  ACCESS:          0  HIT:          0  MISS:          0
cpu0_ITLB WRITEBACK ACCESS:          0  HIT:          0  MISS:          0
cpu0_ITLB TRANSLATION ACCESS:          0  HIT:          0  MISS:          0
cpu0_ITLB PREFETCH  REQUESTED:          0  ISSUED:          0  USEFUL:          0  USELESS:          0
cpu0_ITLB AVERAGE MISS LATENCY: 392 cycles
cpu0_L1I TOTAL     ACCESS:      58644  HIT:      58505  MISS:        139
cpu0_L1I LOAD      ACCESS:      58644  HIT:      58505  MISS:        139
cpu0_L1I RFO       ACCESS:          0  HIT:          0  MISS:          0
cpu0_L1I PREFETCH  ACCESS:          0  HIT:          0  MISS:          0
cpu0_L1I WRITEBACK ACCESS:          0  HIT:          0  MISS:          0
cpu0_L1I TRANSLATION ACCESS:          0  HIT:          0  MISS:          0
cpu0_L1I PREFETCH  REQUESTED:          0  ISSUED:          0  USEFUL:          0  USELESS:          0
cpu0_L1I AVERAGE MISS LATENCY: 214.676 cycles
cpu0_STLB TOTAL     ACCESS:     661276  HIT:     660456  MISS:        820
cpu0_STLB LOAD      ACCESS:     657359  HIT:     657086  MISS:        273
cpu0_STLB RFO       ACCESS:       3917  HIT:       3370  MISS:        547
cpu0_STLB PREFETCH  ACCESS:          0  HIT:          0  MISS:          0
cpu0_STLB WRITEBACK ACCESS:          0  HIT:          0  MISS:          0
cpu0_STLB TRANSLATION ACCESS:          0  HIT:          0  MISS:          0
cpu0_STLB PREFETCH  REQUESTED:          0  ISSUED:          0  USEFUL:          0  USELESS:          0
cpu0_STLB AVERAGE MISS LATENCY: 213.539 cycles
cpu0_L1D TOTAL     ACCESS:   20328334  HIT:   19322788  MISS:    1005546
cpu0_L1D LOAD      ACCESS:   10372408  HIT:    9486050  MISS:     886358
cpu0_L1D RFO       ACCESS:    9955108  HIT:    9836239  MISS:     118869
cpu0_L1D PREFETCH  ACCESS:          0  HIT:          0  MISS:          0
cpu0_L1D WRITEBACK ACCESS:          0  HIT:          0  MISS:          0
cpu0_L1D TRANSLATION ACCESS:        818  HIT:        499  MISS:        319
cpu0_L1D PREFETCH  REQUESTED:          0  ISSUED:          0  USEFUL:          0  USELESS:          0
cpu0_L1D AVERAGE MISS LATENCY: 78.7079 cycles
cpu0_L2C TOTAL     ACCESS:    1222676  HIT:     525062  MISS:     697614
cpu0_L2C LOAD      ACCESS:     886494  HIT:     288907  MISS:     597587
cpu0_L2C RFO       ACCESS:     118869  HIT:      18896  MISS:      99973
cpu0_L2C PREFETCH  ACCESS:          0  HIT:          0  MISS:          0
cpu0_L2C WRITEBACK ACCESS:     216994  HIT:     216958  MISS:         36
cpu0_L2C TRANSLATION ACCESS:        319  HIT:        301  MISS:         18
cpu0_L2C PREFETCH  REQUESTED:          0  ISSUED:          0  USEFUL:          0  USELESS:          0
cpu0_L2C AVERAGE MISS LATENCY: 97.6301 cycles
LLC TOTAL     ACCESS:     886576  HIT:     587955  MISS:     298621
LLC LOAD      ACCESS:     597586  HIT:     406148  MISS:     191438
LLC RFO       ACCESS:      99973  HIT:      47166  MISS:      52807
LLC PREFETCH  ACCESS:          0  HIT:          0  MISS:          0
LLC WRITEBACK ACCESS:     188999  HIT:     134640  MISS:      54359
LLC TRANSLATION ACCESS:         18  HIT:          1  MISS:         17
LLC PREFETCH  REQUESTED:          0  ISSUED:          0  USEFUL:          0  USELESS:          0
LLC AVERAGE MISS LATENCY: 179.016 cycles
Insertion Distribution: 
	LOAD 0 0 60218 131802 
	RFO 0 0 25179 43586 
	PREF 0 0 0 0 
	WRITEBACK 0 0 0 54359 
	 0 0 16 12 
Total Prefetch Downgrades: 0

DRAM Statistics
 CHANNEL 0
 RQ ROW_BUFFER_HIT:      33820  ROW_BUFFER_MISS:     210297
 DBUS AVG_CONGESTED_CYCLE:     3.9371
 WQ ROW_BUFFER_HIT:      16672  ROW_BUFFER_MISS:      83962  FULL:       1095


CPU 0 Branch Prediction Accuracy: 93.3658% MPKI: 11.2167 Average ROB Occupancy at Mispredict: 31.7391
Branch type MPKI
BRANCH_DIRECT_JUMP: 0.0006
BRANCH_INDIRECT: 0.01713
BRANCH_CONDITIONAL: 11.1989
BRANCH_DIRECT_CALL: 5e-05
BRANCH_INDIRECT_CALL: 0
BRANCH_RETURN: 6e-05

