
*** ChampSim Multicore Out-of-Order Simulator ***

Warmup Instructions: 10000000
Simulation Instructions: 100000000
Number of CPUs: 1
Off-chip DRAM Size: 4 GiB Channels: 1 Width: 64-bit Data Rate: 3200 MT/s

VirtualMemory physical capacity: 8588881920 num_ppages: 2096895
VirtualMemory page size: 4096 log2_page_size: 12

CPU 0 runs /datasets/cs240c-wi22-a00-public/data/Assignment2/zeusmp_300B.trace.xz
CPU 0 Bimodal branch predictor
Basic BTB sets: 1024 ways: 8 indirect buffer size: 4096 RAS size: 64
Initialize SRRIP state
Heartbeat CPU 0 instructions: 10000000 cycles: 2814860 heartbeat IPC: 3.55257 cumulative IPC: 3.55257 (Simulation time: 0 hr 0 min 32 sec) 

Warmup complete CPU 0 instructions: 10000002 cycles: 2814863 (Simulation time: 0 hr 0 min 32 sec) 

Heartbeat CPU 0 instructions: 20000004 cycles: 8470903 heartbeat IPC: 1.76802 cumulative IPC: 1.76802 (Simulation time: 0 hr 1 min 15 sec) 
Heartbeat CPU 0 instructions: 30000004 cycles: 14140644 heartbeat IPC: 1.76375 cumulative IPC: 1.76588 (Simulation time: 0 hr 1 min 57 sec) 
Heartbeat CPU 0 instructions: 40000003 cycles: 19786050 heartbeat IPC: 1.77135 cumulative IPC: 1.7677 (Simulation time: 0 hr 2 min 36 sec) 
Heartbeat CPU 0 instructions: 50000004 cycles: 25477226 heartbeat IPC: 1.75711 cumulative IPC: 1.76504 (Simulation time: 0 hr 3 min 16 sec) 
Heartbeat CPU 0 instructions: 60000001 cycles: 31165055 heartbeat IPC: 1.75814 cumulative IPC: 1.76366 (Simulation time: 0 hr 3 min 56 sec) 
Heartbeat CPU 0 instructions: 70000000 cycles: 36815421 heartbeat IPC: 1.7698 cumulative IPC: 1.76468 (Simulation time: 0 hr 4 min 36 sec) 
Heartbeat CPU 0 instructions: 80000000 cycles: 42459716 heartbeat IPC: 1.7717 cumulative IPC: 1.76568 (Simulation time: 0 hr 5 min 15 sec) 
Heartbeat CPU 0 instructions: 90000003 cycles: 48151574 heartbeat IPC: 1.7569 cumulative IPC: 1.76457 (Simulation time: 0 hr 5 min 58 sec) 
Heartbeat CPU 0 instructions: 100000000 cycles: 53787028 heartbeat IPC: 1.77448 cumulative IPC: 1.76567 (Simulation time: 0 hr 6 min 41 sec) 
Heartbeat CPU 0 instructions: 110000000 cycles: 59372074 heartbeat IPC: 1.7905 cumulative IPC: 1.76812 (Simulation time: 0 hr 7 min 21 sec) 
Finished CPU 0 instructions: 100000003 cycles: 56557212 cumulative IPC: 1.76812 (Simulation time: 0 hr 7 min 21 sec) 

ChampSim completed all CPUs

Region of Interest Statistics

CPU 0 cumulative IPC: 1.76812 instructions: 100000003 cycles: 56557212
cpu0_DTLB TOTAL     ACCESS:   16104413  HIT:   15021339  MISS:    1083074
cpu0_DTLB LOAD      ACCESS:   10878055  HIT:    9812742  MISS:    1065313
cpu0_DTLB RFO       ACCESS:    5226358  HIT:    5208597  MISS:      17761
cpu0_DTLB PREFETCH  ACCESS:          0  HIT:          0  MISS:          0
cpu0_DTLB WRITEBACK ACCESS:          0  HIT:          0  MISS:          0
cpu0_DTLB TRANSLATION ACCESS:          0  HIT:          0  MISS:          0
cpu0_DTLB PREFETCH  REQUESTED:          0  ISSUED:          0  USEFUL:          0  USELESS:          0
cpu0_DTLB AVERAGE MISS LATENCY: 10.4996 cycles
cpu0_ITLB TOTAL     ACCESS:    1800736  HIT:    1800736  MISS:          0
cpu0_ITLB LOAD      ACCESS:    1800736  HIT:    1800736  MISS:          0
cpu0_ITLB RFO       ACCESS:          0  HIT:          0  MISS:          0
cpu0_ITLB PREFETCH  ACCESS:          0  HIT:          0  MISS:          0
cpu0_ITLB WRITEBACK ACCESS:          0  HIT:          0  MISS:          0
cpu0_ITLB TRANSLATION ACCESS:          0  HIT:          0  MISS:          0
cpu0_ITLB PREFETCH  REQUESTED:          0  ISSUED:          0  USEFUL:          0  USELESS:          0
cpu0_ITLB AVERAGE MISS LATENCY: -nan cycles
cpu0_L1I TOTAL     ACCESS:    2750374  HIT:    2750374  MISS:          0
cpu0_L1I LOAD      ACCESS:    2750374  HIT:    2750374  MISS:          0
cpu0_L1I RFO       ACCESS:          0  HIT:          0  MISS:          0
cpu0_L1I PREFETCH  ACCESS:          0  HIT:          0  MISS:          0
cpu0_L1I WRITEBACK ACCESS:          0  HIT:          0  MISS:          0
cpu0_L1I TRANSLATION ACCESS:          0  HIT:          0  MISS:          0
cpu0_L1I PREFETCH  REQUESTED:          0  ISSUED:          0  USEFUL:          0  USELESS:          0
cpu0_L1I AVERAGE MISS LATENCY: -nan cycles
cpu0_STLB TOTAL     ACCESS:    1083074  HIT:    1076102  MISS:       6972
cpu0_STLB LOAD      ACCESS:    1065313  HIT:    1060394  MISS:       4919
cpu0_STLB RFO       ACCESS:      17761  HIT:      15708  MISS:       2053
cpu0_STLB PREFETCH  ACCESS:          0  HIT:          0  MISS:          0
cpu0_STLB WRITEBACK ACCESS:          0  HIT:          0  MISS:          0
cpu0_STLB TRANSLATION ACCESS:          0  HIT:          0  MISS:          0
cpu0_STLB PREFETCH  REQUESTED:          0  ISSUED:          0  USEFUL:          0  USELESS:          0
cpu0_STLB AVERAGE MISS LATENCY: 208.183 cycles
cpu0_L1D TOTAL     ACCESS:   18600554  HIT:   17939767  MISS:     660787
cpu0_L1D LOAD      ACCESS:   10915068  HIT:   10434336  MISS:     480732
cpu0_L1D RFO       ACCESS:    7678830  HIT:    7503412  MISS:     175418
cpu0_L1D PREFETCH  ACCESS:          0  HIT:          0  MISS:          0
cpu0_L1D WRITEBACK ACCESS:          0  HIT:          0  MISS:          0
cpu0_L1D TRANSLATION ACCESS:       6656  HIT:       2019  MISS:       4637
cpu0_L1D PREFETCH  REQUESTED:          0  ISSUED:          0  USEFUL:          0  USELESS:          0
cpu0_L1D AVERAGE MISS LATENCY: 140.874 cycles
cpu0_L2C TOTAL     ACCESS:     838854  HIT:     409937  MISS:     428917
cpu0_L2C LOAD      ACCESS:     480703  HIT:     197410  MISS:     283293
cpu0_L2C RFO       ACCESS:     175371  HIT:      34915  MISS:     140456
cpu0_L2C PREFETCH  ACCESS:          0  HIT:          0  MISS:          0
cpu0_L2C WRITEBACK ACCESS:     178143  HIT:     173209  MISS:       4934
cpu0_L2C TRANSLATION ACCESS:       4637  HIT:       4403  MISS:        234
cpu0_L2C PREFETCH  REQUESTED:          0  ISSUED:          0  USEFUL:          0  USELESS:          0
cpu0_L2C AVERAGE MISS LATENCY: 200.067 cycles
LLC TOTAL     ACCESS:     580533  HIT:     230931  MISS:     349602
LLC LOAD      ACCESS:     283293  HIT:      81218  MISS:     202075
LLC RFO       ACCESS:     140456  HIT:      64267  MISS:      76189
LLC PREFETCH  ACCESS:          0  HIT:          0  MISS:          0
LLC WRITEBACK ACCESS:     156550  HIT:      85212  MISS:      71338
LLC TRANSLATION ACCESS:        234  HIT:        234  MISS:          0
LLC PREFETCH  REQUESTED:          0  ISSUED:          0  USEFUL:          0  USELESS:          0
LLC AVERAGE MISS LATENCY: 219.989 cycles
Insertion Distribution: 
	LOAD 12532 0 33407 178337 
	RFO 565 0 7865 78156 
	PREF 0 0 0 0 
	WRITEBACK 0 0 0 71557 
	 1 0 23 0 
Total Prefetch Downgrades: 0

DRAM Statistics
 CHANNEL 0
 RQ ROW_BUFFER_HIT:      22253  ROW_BUFFER_MISS:     256011
 DBUS AVG_CONGESTED_CYCLE:    3.97913
 WQ ROW_BUFFER_HIT:       5916  ROW_BUFFER_MISS:      73331  FULL:          0


CPU 0 Branch Prediction Accuracy: 98.8423% MPKI: 0.45019 Average ROB Occupancy at Mispredict: 207.845
Branch type MPKI
BRANCH_DIRECT_JUMP: 0
BRANCH_INDIRECT: 0
BRANCH_CONDITIONAL: 0.45019
BRANCH_DIRECT_CALL: 0
BRANCH_INDIRECT_CALL: 0
BRANCH_RETURN: 0

