
*** ChampSim Multicore Out-of-Order Simulator ***

Warmup Instructions: 10000000
Simulation Instructions: 100000000
Number of CPUs: 1
Off-chip DRAM Size: 4 GiB Channels: 1 Width: 64-bit Data Rate: 3200 MT/s

VirtualMemory physical capacity: 8588881920 num_ppages: 2096895
VirtualMemory page size: 4096 log2_page_size: 12

CPU 0 runs /datasets/cs240c-wi22-a00-public/data/Assignment2/astar_23B.trace.xz
CPU 0 Bimodal branch predictor
Basic BTB sets: 1024 ways: 8 indirect buffer size: 4096 RAS size: 64
Initialize SRRIP state
Heartbeat CPU 0 instructions: 10000002 cycles: 2670768 heartbeat IPC: 3.74424 cumulative IPC: 3.74424 (Simulation time: 0 hr 0 min 39 sec) 

Warmup complete CPU 0 instructions: 10000002 cycles: 2670768 (Simulation time: 0 hr 0 min 39 sec) 

Heartbeat CPU 0 instructions: 20000003 cycles: 25747648 heartbeat IPC: 0.433334 cumulative IPC: 0.433334 (Simulation time: 0 hr 1 min 28 sec) 
Heartbeat CPU 0 instructions: 30000000 cycles: 50637396 heartbeat IPC: 0.401772 cumulative IPC: 0.416957 (Simulation time: 0 hr 2 min 21 sec) 
Heartbeat CPU 0 instructions: 40000002 cycles: 75710799 heartbeat IPC: 0.398829 cumulative IPC: 0.410734 (Simulation time: 0 hr 3 min 14 sec) 
Heartbeat CPU 0 instructions: 50000002 cycles: 100157862 heartbeat IPC: 0.409047 cumulative IPC: 0.410311 (Simulation time: 0 hr 4 min 4 sec) 
Heartbeat CPU 0 instructions: 60000000 cycles: 124967877 heartbeat IPC: 0.403063 cumulative IPC: 0.40884 (Simulation time: 0 hr 4 min 55 sec) 
Heartbeat CPU 0 instructions: 70000000 cycles: 148188508 heartbeat IPC: 0.430652 cumulative IPC: 0.412321 (Simulation time: 0 hr 5 min 44 sec) 
Heartbeat CPU 0 instructions: 80000000 cycles: 172168143 heartbeat IPC: 0.417021 cumulative IPC: 0.412986 (Simulation time: 0 hr 6 min 35 sec) 
Heartbeat CPU 0 instructions: 90000004 cycles: 196921071 heartbeat IPC: 0.403993 cumulative IPC: 0.41184 (Simulation time: 0 hr 7 min 27 sec) 
Heartbeat CPU 0 instructions: 100000002 cycles: 220481364 heartbeat IPC: 0.424443 cumulative IPC: 0.413203 (Simulation time: 0 hr 8 min 17 sec) 
Heartbeat CPU 0 instructions: 110000003 cycles: 244747867 heartbeat IPC: 0.412091 cumulative IPC: 0.413092 (Simulation time: 0 hr 9 min 8 sec) 
Finished CPU 0 instructions: 100000001 cycles: 242077099 cumulative IPC: 0.413092 (Simulation time: 0 hr 9 min 8 sec) 

ChampSim completed all CPUs

Region of Interest Statistics

CPU 0 cumulative IPC: 0.413092 instructions: 100000001 cycles: 242077099
cpu0_DTLB TOTAL     ACCESS:   24054196  HIT:   21626350  MISS:    2427846
cpu0_DTLB LOAD      ACCESS:   21285528  HIT:   19103590  MISS:    2181938
cpu0_DTLB RFO       ACCESS:    2768668  HIT:    2522760  MISS:     245908
cpu0_DTLB PREFETCH  ACCESS:          0  HIT:          0  MISS:          0
cpu0_DTLB WRITEBACK ACCESS:          0  HIT:          0  MISS:          0
cpu0_DTLB TRANSLATION ACCESS:          0  HIT:          0  MISS:          0
cpu0_DTLB PREFETCH  REQUESTED:          0  ISSUED:          0  USEFUL:          0  USELESS:          0
cpu0_DTLB AVERAGE MISS LATENCY: 10.5704 cycles
cpu0_ITLB TOTAL     ACCESS:   12810373  HIT:   12810363  MISS:         10
cpu0_ITLB LOAD      ACCESS:   12810373  HIT:   12810363  MISS:         10
cpu0_ITLB RFO       ACCESS:          0  HIT:          0  MISS:          0
cpu0_ITLB PREFETCH  ACCESS:          0  HIT:          0  MISS:          0
cpu0_ITLB WRITEBACK ACCESS:          0  HIT:          0  MISS:          0
cpu0_ITLB TRANSLATION ACCESS:          0  HIT:          0  MISS:          0
cpu0_ITLB PREFETCH  REQUESTED:          0  ISSUED:          0  USEFUL:          0  USELESS:          0
cpu0_ITLB AVERAGE MISS LATENCY: 239.6 cycles
cpu0_L1I TOTAL     ACCESS:       4972  HIT:       4871  MISS:        101
cpu0_L1I LOAD      ACCESS:       4972  HIT:       4871  MISS:        101
cpu0_L1I RFO       ACCESS:          0  HIT:          0  MISS:          0
cpu0_L1I PREFETCH  ACCESS:          0  HIT:          0  MISS:          0
cpu0_L1I WRITEBACK ACCESS:          0  HIT:          0  MISS:          0
cpu0_L1I TRANSLATION ACCESS:          0  HIT:          0  MISS:          0
cpu0_L1I PREFETCH  REQUESTED:          0  ISSUED:          0  USEFUL:          0  USELESS:          0
cpu0_L1I AVERAGE MISS LATENCY: 189.713 cycles
cpu0_STLB TOTAL     ACCESS:    2427856  HIT:    2026646  MISS:     401210
cpu0_STLB LOAD      ACCESS:    2181948  HIT:    1847061  MISS:     334887
cpu0_STLB RFO       ACCESS:     245908  HIT:     179585  MISS:      66323
cpu0_STLB PREFETCH  ACCESS:          0  HIT:          0  MISS:          0
cpu0_STLB WRITEBACK ACCESS:          0  HIT:          0  MISS:          0
cpu0_STLB TRANSLATION ACCESS:          0  HIT:          0  MISS:          0
cpu0_STLB PREFETCH  REQUESTED:          0  ISSUED:          0  USEFUL:          0  USELESS:          0
cpu0_STLB AVERAGE MISS LATENCY: 9.44342 cycles
cpu0_L1D TOTAL     ACCESS:   26431703  HIT:   23507211  MISS:    2924492
cpu0_L1D LOAD      ACCESS:   21757755  HIT:   18872329  MISS:    2885426
cpu0_L1D RFO       ACCESS:    4287420  HIT:    4250337  MISS:      37083
cpu0_L1D PREFETCH  ACCESS:          0  HIT:          0  MISS:          0
cpu0_L1D WRITEBACK ACCESS:          0  HIT:          0  MISS:          0
cpu0_L1D TRANSLATION ACCESS:     386528  HIT:     384545  MISS:       1983
cpu0_L1D PREFETCH  REQUESTED:          0  ISSUED:          0  USEFUL:          0  USELESS:          0
cpu0_L1D AVERAGE MISS LATENCY: 34.3594 cycles
cpu0_L2C TOTAL     ACCESS:    3881066  HIT:    2756729  MISS:    1124337
cpu0_L2C LOAD      ACCESS:    2885456  HIT:    1767358  MISS:    1118098
cpu0_L2C RFO       ACCESS:      37083  HIT:      31088  MISS:       5995
cpu0_L2C PREFETCH  ACCESS:          0  HIT:          0  MISS:          0
cpu0_L2C WRITEBACK ACCESS:     956544  HIT:     956488  MISS:         56
cpu0_L2C TRANSLATION ACCESS:       1983  HIT:       1795  MISS:        188
cpu0_L2C PREFETCH  REQUESTED:          0  ISSUED:          0  USEFUL:          0  USELESS:          0
cpu0_L2C AVERAGE MISS LATENCY: 60.7228 cycles
LLC TOTAL     ACCESS:    1532630  HIT:    1211212  MISS:     321418
LLC LOAD      ACCESS:    1117941  HIT:     859180  MISS:     258761
LLC RFO       ACCESS:       5995  HIT:       5679  MISS:        316
LLC PREFETCH  ACCESS:          0  HIT:          0  MISS:          0
LLC WRITEBACK ACCESS:     408506  HIT:     346177  MISS:      62329
LLC TRANSLATION ACCESS:        188  HIT:        176  MISS:         12
LLC PREFETCH  REQUESTED:          0  ISSUED:          0  USEFUL:          0  USELESS:          0
LLC AVERAGE MISS LATENCY: 138.966 cycles
Insertion Distribution: 
	LOAD 67767 0 0 0 0 0 0 0 0 0 0 0 0 0 124958 91923 
	RFO 41 0 0 0 0 0 0 0 0 0 0 0 0 0 322 6 
	PREF 0 0 0 0 0 0 0 0 0 0 0 0 0 0 0 0 
	WRITEBACK 0 0 0 0 0 0 0 0 0 0 0 0 0 0 0 62803 
	 0 0 0 0 0 0 0 0 0 0 0 0 0 0 22 1 
Total Prefetch Downgrades: 0

DRAM Statistics
 CHANNEL 0
 RQ ROW_BUFFER_HIT:       1209  ROW_BUFFER_MISS:     257368
 DBUS AVG_CONGESTED_CYCLE:    3.55375
 WQ ROW_BUFFER_HIT:       6751  ROW_BUFFER_MISS:     133858  FULL:          0


CPU 0 Branch Prediction Accuracy: 69.3175% MPKI: 58.5794 Average ROB Occupancy at Mispredict: 5.13486
Branch type MPKI
BRANCH_DIRECT_JUMP: 0.00025
BRANCH_INDIRECT: 0
BRANCH_CONDITIONAL: 58.5789
BRANCH_DIRECT_CALL: 0.00016
BRANCH_INDIRECT_CALL: 0
BRANCH_RETURN: 0.00016

