
*** ChampSim Multicore Out-of-Order Simulator ***

Warmup Instructions: 10000000
Simulation Instructions: 100000000
Number of CPUs: 1
Off-chip DRAM Size: 4 GiB Channels: 1 Width: 64-bit Data Rate: 3200 MT/s

VirtualMemory physical capacity: 8588881920 num_ppages: 2096895
VirtualMemory page size: 4096 log2_page_size: 12

CPU 0 runs /datasets/cs240c-wi22-a00-public/data/Assignment2/GemsFDTD_716B.trace.xz
CPU 0 Bimodal branch predictor
Basic BTB sets: 1024 ways: 8 indirect buffer size: 4096 RAS size: 64
Initialize SRRIP state
Heartbeat CPU 0 instructions: 10000004 cycles: 2536409 heartbeat IPC: 3.94258 cumulative IPC: 3.94258 (Simulation time: 0 hr 0 min 30 sec) 

Warmup complete CPU 0 instructions: 10000004 cycles: 2536409 (Simulation time: 0 hr 0 min 30 sec) 

Heartbeat CPU 0 instructions: 20000003 cycles: 24853388 heartbeat IPC: 0.448089 cumulative IPC: 0.448089 (Simulation time: 0 hr 2 min 57 sec) 
Heartbeat CPU 0 instructions: 30000002 cycles: 38596213 heartbeat IPC: 0.727652 cumulative IPC: 0.554634 (Simulation time: 0 hr 4 min 47 sec) 
Heartbeat CPU 0 instructions: 40000000 cycles: 49967822 heartbeat IPC: 0.879383 cumulative IPC: 0.632492 (Simulation time: 0 hr 6 min 21 sec) 
Heartbeat CPU 0 instructions: 50000002 cycles: 67781849 heartbeat IPC: 0.561355 cumulative IPC: 0.61307 (Simulation time: 0 hr 8 min 17 sec) 
Heartbeat CPU 0 instructions: 60000002 cycles: 83267031 heartbeat IPC: 0.645779 cumulative IPC: 0.619344 (Simulation time: 0 hr 9 min 58 sec) 
Heartbeat CPU 0 instructions: 70000001 cycles: 95288881 heartbeat IPC: 0.831819 cumulative IPC: 0.646883 (Simulation time: 0 hr 11 min 25 sec) 
Heartbeat CPU 0 instructions: 80000003 cycles: 109868431 heartbeat IPC: 0.685892 cumulative IPC: 0.652182 (Simulation time: 0 hr 13 min 4 sec) 
Heartbeat CPU 0 instructions: 90000001 cycles: 127929760 heartbeat IPC: 0.553669 cumulative IPC: 0.637992 (Simulation time: 0 hr 15 min 10 sec) 
Heartbeat CPU 0 instructions: 100000001 cycles: 140695797 heartbeat IPC: 0.783328 cumulative IPC: 0.651421 (Simulation time: 0 hr 16 min 56 sec) 
Heartbeat CPU 0 instructions: 110000004 cycles: 152114635 heartbeat IPC: 0.875746 cumulative IPC: 0.668546 (Simulation time: 0 hr 18 min 32 sec) 
Finished CPU 0 instructions: 100000000 cycles: 149578226 cumulative IPC: 0.668546 (Simulation time: 0 hr 18 min 32 sec) 

ChampSim completed all CPUs

Region of Interest Statistics

CPU 0 cumulative IPC: 0.668546 instructions: 100000000 cycles: 149578226
cpu0_DTLB TOTAL     ACCESS:   29892347  HIT:   26862498  MISS:    3029849
cpu0_DTLB LOAD      ACCESS:   20910654  HIT:   17881661  MISS:    3028993
cpu0_DTLB RFO       ACCESS:    8981693  HIT:    8980837  MISS:        856
cpu0_DTLB PREFETCH  ACCESS:          0  HIT:          0  MISS:          0
cpu0_DTLB WRITEBACK ACCESS:          0  HIT:          0  MISS:          0
cpu0_DTLB TRANSLATION ACCESS:          0  HIT:          0  MISS:          0
cpu0_DTLB PREFETCH  REQUESTED:          0  ISSUED:          0  USEFUL:          0  USELESS:          0
cpu0_DTLB AVERAGE MISS LATENCY: 13.8426 cycles
cpu0_ITLB TOTAL     ACCESS:    1847893  HIT:    1847891  MISS:          2
cpu0_ITLB LOAD      ACCESS:    1847893  HIT:    1847891  MISS:          2
cpu0_ITLB RFO       ACCESS:          0  HIT:          0  MISS:          0
cpu0_ITLB PREFETCH  ACCESS:          0  HIT:          0  MISS:          0
cpu0_ITLB WRITEBACK ACCESS:          0  HIT:          0  MISS:          0
cpu0_ITLB TRANSLATION ACCESS:          0  HIT:          0  MISS:          0
cpu0_ITLB PREFETCH  REQUESTED:          0  ISSUED:          0  USEFUL:          0  USELESS:          0
cpu0_ITLB AVERAGE MISS LATENCY: 383 cycles
cpu0_L1I TOTAL     ACCESS:    7855397  HIT:    7855275  MISS:        122
cpu0_L1I LOAD      ACCESS:    7855397  HIT:    7855275  MISS:        122
cpu0_L1I RFO       ACCESS:          0  HIT:          0  MISS:          0
cpu0_L1I PREFETCH  ACCESS:          0  HIT:          0  MISS:          0
cpu0_L1I WRITEBACK ACCESS:          0  HIT:          0  MISS:          0
cpu0_L1I TRANSLATION ACCESS:          0  HIT:          0  MISS:          0
cpu0_L1I PREFETCH  REQUESTED:          0  ISSUED:          0  USEFUL:          0  USELESS:          0
cpu0_L1I AVERAGE MISS LATENCY: 271.721 cycles
cpu0_STLB TOTAL     ACCESS:    3029852  HIT:    2757397  MISS:     272455
cpu0_STLB LOAD      ACCESS:    3028996  HIT:    2756541  MISS:     272455
cpu0_STLB RFO       ACCESS:        856  HIT:        856  MISS:          0
cpu0_STLB PREFETCH  ACCESS:          0  HIT:          0  MISS:          0
cpu0_STLB WRITEBACK ACCESS:          0  HIT:          0  MISS:          0
cpu0_STLB TRANSLATION ACCESS:          0  HIT:          0  MISS:          0
cpu0_STLB PREFETCH  REQUESTED:          0  ISSUED:          0  USEFUL:          0  USELESS:          0
cpu0_STLB AVERAGE MISS LATENCY: 51.4647 cycles
cpu0_L1D TOTAL     ACCESS:   34790609  HIT:   26547800  MISS:    8242809
cpu0_L1D LOAD      ACCESS:   22656402  HIT:   14437201  MISS:    8219201
cpu0_L1D RFO       ACCESS:   11867082  HIT:   11867076  MISS:          6
cpu0_L1D PREFETCH  ACCESS:          0  HIT:          0  MISS:          0
cpu0_L1D WRITEBACK ACCESS:          0  HIT:          0  MISS:          0
cpu0_L1D TRANSLATION ACCESS:     267125  HIT:     243523  MISS:      23602
cpu0_L1D PREFETCH  REQUESTED:          0  ISSUED:          0  USEFUL:          0  USELESS:          0
cpu0_L1D AVERAGE MISS LATENCY: 68.5332 cycles
cpu0_L2C TOTAL     ACCESS:    9425515  HIT:    7934472  MISS:    1491043
cpu0_L2C LOAD      ACCESS:    8219323  HIT:    6728905  MISS:    1490418
cpu0_L2C RFO       ACCESS:          6  HIT:          6  MISS:          0
cpu0_L2C PREFETCH  ACCESS:          0  HIT:          0  MISS:          0
cpu0_L2C WRITEBACK ACCESS:    1182584  HIT:    1182544  MISS:         40
cpu0_L2C TRANSLATION ACCESS:      23602  HIT:      23017  MISS:        585
cpu0_L2C PREFETCH  REQUESTED:          0  ISSUED:          0  USEFUL:          0  USELESS:          0
cpu0_L2C AVERAGE MISS LATENCY: 316.164 cycles
LLC TOTAL     ACCESS:    1524882  HIT:     104839  MISS:    1420043
LLC LOAD      ACCESS:    1490306  HIT:      71461  MISS:    1418845
LLC RFO       ACCESS:          0  HIT:          0  MISS:          0
LLC PREFETCH  ACCESS:          0  HIT:          0  MISS:          0
LLC WRITEBACK ACCESS:      33991  HIT:      32998  MISS:        993
LLC TRANSLATION ACCESS:        585  HIT:        380  MISS:        205
LLC PREFETCH  REQUESTED:          0  ISSUED:          0  USEFUL:          0  USELESS:          0
LLC AVERAGE MISS LATENCY: 309.923 cycles
Insertion Distribution: 
	LOAD 13297 0 429423 1046314 
	RFO 0 0 14461 0 
	PREF 0 0 0 0 
	WRITEBACK 0 0 0 1119 
	 1 0 111 127 
Total Prefetch Downgrades: 0

DRAM Statistics
 CHANNEL 0
 RQ ROW_BUFFER_HIT:         72  ROW_BUFFER_MISS:    1418965
 DBUS AVG_CONGESTED_CYCLE:    3.95057
 WQ ROW_BUFFER_HIT:       1156  ROW_BUFFER_MISS:      12144  FULL:          0


CPU 0 Branch Prediction Accuracy: 98.9038% MPKI: 0.06477 Average ROB Occupancy at Mispredict: 248.501
Branch type MPKI
BRANCH_DIRECT_JUMP: 0
BRANCH_INDIRECT: 0
BRANCH_CONDITIONAL: 0.06477
BRANCH_DIRECT_CALL: 0
BRANCH_INDIRECT_CALL: 0
BRANCH_RETURN: 0

