
*** ChampSim Multicore Out-of-Order Simulator ***

Warmup Instructions: 10000000
Simulation Instructions: 100000000
Number of CPUs: 1
Off-chip DRAM Size: 4 GiB Channels: 1 Width: 64-bit Data Rate: 3200 MT/s

VirtualMemory physical capacity: 8588881920 num_ppages: 2096895
VirtualMemory page size: 4096 log2_page_size: 12

CPU 0 runs /datasets/cs240c-wi22-a00-public/data/Assignment2/soplex_217B.trace.xz
CPU 0 Bimodal branch predictor
Basic BTB sets: 1024 ways: 8 indirect buffer size: 4096 RAS size: 64
Initialize SRRIP state
Heartbeat CPU 0 instructions: 10000000 cycles: 2844433 heartbeat IPC: 3.51564 cumulative IPC: 3.51564 (Simulation time: 0 hr 0 min 35 sec) 

Warmup complete CPU 0 instructions: 10000004 cycles: 2844434 (Simulation time: 0 hr 0 min 35 sec) 

Heartbeat CPU 0 instructions: 20000000 cycles: 35244928 heartbeat IPC: 0.308637 cumulative IPC: 0.308637 (Simulation time: 0 hr 2 min 18 sec) 
Heartbeat CPU 0 instructions: 30000004 cycles: 65413219 heartbeat IPC: 0.331474 cumulative IPC: 0.319648 (Simulation time: 0 hr 4 min 3 sec) 
Heartbeat CPU 0 instructions: 40000003 cycles: 95563673 heartbeat IPC: 0.33167 cumulative IPC: 0.323557 (Simulation time: 0 hr 5 min 38 sec) 
Heartbeat CPU 0 instructions: 50000000 cycles: 124861602 heartbeat IPC: 0.341321 cumulative IPC: 0.327823 (Simulation time: 0 hr 7 min 16 sec) 
Heartbeat CPU 0 instructions: 60000002 cycles: 154521483 heartbeat IPC: 0.337156 cumulative IPC: 0.329648 (Simulation time: 0 hr 8 min 53 sec) 
Heartbeat CPU 0 instructions: 70000000 cycles: 199862984 heartbeat IPC: 0.220548 cumulative IPC: 0.30454 (Simulation time: 0 hr 11 min 17 sec) 
Heartbeat CPU 0 instructions: 80000000 cycles: 233726170 heartbeat IPC: 0.295306 cumulative IPC: 0.303185 (Simulation time: 0 hr 12 min 49 sec) 
Heartbeat CPU 0 instructions: 90000002 cycles: 264665567 heartbeat IPC: 0.323213 cumulative IPC: 0.305552 (Simulation time: 0 hr 14 min 38 sec) 
Heartbeat CPU 0 instructions: 100000003 cycles: 295897343 heartbeat IPC: 0.320187 cumulative IPC: 0.307112 (Simulation time: 0 hr 16 min 20 sec) 
Heartbeat CPU 0 instructions: 110000000 cycles: 325742757 heartbeat IPC: 0.33506 cumulative IPC: 0.309695 (Simulation time: 0 hr 17 min 48 sec) 
Finished CPU 0 instructions: 100000000 cycles: 322898325 cumulative IPC: 0.309695 (Simulation time: 0 hr 17 min 48 sec) 

ChampSim completed all CPUs

Region of Interest Statistics

CPU 0 cumulative IPC: 0.309695 instructions: 100000000 cycles: 322898325
cpu0_DTLB TOTAL     ACCESS:   21907207  HIT:   21042237  MISS:     864970
cpu0_DTLB LOAD      ACCESS:   16742049  HIT:   16057517  MISS:     684532
cpu0_DTLB RFO       ACCESS:    5165158  HIT:    4984720  MISS:     180438
cpu0_DTLB PREFETCH  ACCESS:          0  HIT:          0  MISS:          0
cpu0_DTLB WRITEBACK ACCESS:          0  HIT:          0  MISS:          0
cpu0_DTLB TRANSLATION ACCESS:          0  HIT:          0  MISS:          0
cpu0_DTLB PREFETCH  REQUESTED:          0  ISSUED:          0  USEFUL:          0  USELESS:          0
cpu0_DTLB AVERAGE MISS LATENCY: 14.2997 cycles
cpu0_ITLB TOTAL     ACCESS:    8423014  HIT:    8422996  MISS:         18
cpu0_ITLB LOAD      ACCESS:    8423014  HIT:    8422996  MISS:         18
cpu0_ITLB RFO       ACCESS:          0  HIT:          0  MISS:          0
cpu0_ITLB PREFETCH  ACCESS:          0  HIT:          0  MISS:          0
cpu0_ITLB WRITEBACK ACCESS:          0  HIT:          0  MISS:          0
cpu0_ITLB TRANSLATION ACCESS:          0  HIT:          0  MISS:          0
cpu0_ITLB PREFETCH  REQUESTED:          0  ISSUED:          0  USEFUL:          0  USELESS:          0
cpu0_ITLB AVERAGE MISS LATENCY: 203.278 cycles
cpu0_L1I TOTAL     ACCESS:     355354  HIT:     354701  MISS:        653
cpu0_L1I LOAD      ACCESS:     355354  HIT:     354701  MISS:        653
cpu0_L1I RFO       ACCESS:          0  HIT:          0  MISS:          0
cpu0_L1I PREFETCH  ACCESS:          0  HIT:          0  MISS:          0
cpu0_L1I WRITEBACK ACCESS:          0  HIT:          0  MISS:          0
cpu0_L1I TRANSLATION ACCESS:          0  HIT:          0  MISS:          0
cpu0_L1I PREFETCH  REQUESTED:          0  ISSUED:          0  USEFUL:          0  USELESS:          0
cpu0_L1I AVERAGE MISS LATENCY: 324.374 cycles
cpu0_STLB TOTAL     ACCESS:     864988  HIT:     741474  MISS:     123514
cpu0_STLB LOAD      ACCESS:     684550  HIT:     570389  MISS:     114161
cpu0_STLB RFO       ACCESS:     180438  HIT:     171085  MISS:       9353
cpu0_STLB PREFETCH  ACCESS:          0  HIT:          0  MISS:          0
cpu0_STLB WRITEBACK ACCESS:          0  HIT:          0  MISS:          0
cpu0_STLB TRANSLATION ACCESS:          0  HIT:          0  MISS:          0
cpu0_STLB PREFETCH  REQUESTED:          0  ISSUED:          0  USEFUL:          0  USELESS:          0
cpu0_STLB AVERAGE MISS LATENCY: 35.9714 cycles
cpu0_L1D TOTAL     ACCESS:   18197390  HIT:   12373400  MISS:    5823990
cpu0_L1D LOAD      ACCESS:   12239980  HIT:    7245653  MISS:    4994327
cpu0_L1D RFO       ACCESS:    5837507  HIT:    5012848  MISS:     824659
cpu0_L1D PREFETCH  ACCESS:          0  HIT:          0  MISS:          0
cpu0_L1D WRITEBACK ACCESS:          0  HIT:          0  MISS:          0
cpu0_L1D TRANSLATION ACCESS:     119903  HIT:     114899  MISS:       5004
cpu0_L1D PREFETCH  REQUESTED:          0  ISSUED:          0  USEFUL:          0  USELESS:          0
cpu0_L1D AVERAGE MISS LATENCY: 197.886 cycles
cpu0_L2C TOTAL     ACCESS:    8411844  HIT:    3954678  MISS:    4457166
cpu0_L2C LOAD      ACCESS:    4994438  HIT:    1232230  MISS:    3762208
cpu0_L2C RFO       ACCESS:     824589  HIT:     130485  MISS:     694104
cpu0_L2C PREFETCH  ACCESS:          0  HIT:          0  MISS:          0
cpu0_L2C WRITEBACK ACCESS:    2587813  HIT:    2587710  MISS:        103
cpu0_L2C TRANSLATION ACCESS:       5004  HIT:       4253  MISS:        751
cpu0_L2C PREFETCH  REQUESTED:          0  ISSUED:          0  USEFUL:          0  USELESS:          0
cpu0_L2C AVERAGE MISS LATENCY: 244.005 cycles
LLC TOTAL     ACCESS:    6307902  HIT:    2757084  MISS:    3550818
LLC LOAD      ACCESS:    3762192  HIT:    1341948  MISS:    2420244
LLC RFO       ACCESS:     694102  HIT:     287943  MISS:     406159
LLC PREFETCH  ACCESS:          0  HIT:          0  MISS:          0
LLC WRITEBACK ACCESS:    1850857  HIT:    1126671  MISS:     724186
LLC TRANSLATION ACCESS:        751  HIT:        522  MISS:        229
LLC PREFETCH  REQUESTED:          0  ISSUED:          0  USEFUL:          0  USELESS:          0
LLC AVERAGE MISS LATENCY: 279.323 cycles
Insertion Distribution: 
	LOAD 0 0 422222 2270784 
	RFO 0 0 126924 327495 
	PREF 0 0 0 0 
	WRITEBACK 0 0 0 800830 
	 0 0 109 172 
Total Prefetch Downgrades: 0

DRAM Statistics
 CHANNEL 0
 RQ ROW_BUFFER_HIT:     384349  ROW_BUFFER_MISS:    2440188
 DBUS AVG_CONGESTED_CYCLE:    3.95032
 WQ ROW_BUFFER_HIT:      48869  ROW_BUFFER_MISS:     907981  FULL:     491625


CPU 0 Branch Prediction Accuracy: 93.2069% MPKI: 14.28 Average ROB Occupancy at Mispredict: 49.9739
Branch type MPKI
BRANCH_DIRECT_JUMP: 0.00099
BRANCH_INDIRECT: 0.00023
BRANCH_CONDITIONAL: 14.2767
BRANCH_DIRECT_CALL: 0.00062
BRANCH_INDIRECT_CALL: 0.00054
BRANCH_RETURN: 0.00093

