
*** ChampSim Multicore Out-of-Order Simulator ***

Warmup Instructions: 10000000
Simulation Instructions: 100000000
Number of CPUs: 1
Off-chip DRAM Size: 4 GiB Channels: 1 Width: 64-bit Data Rate: 3200 MT/s

VirtualMemory physical capacity: 8588881920 num_ppages: 2096895
VirtualMemory page size: 4096 log2_page_size: 12

CPU 0 runs /datasets/cs240c-wi22-a00-public/data/Assignment2/calculix_3812B.trace.xz
CPU 0 Bimodal branch predictor
Basic BTB sets: 1024 ways: 8 indirect buffer size: 4096 RAS size: 64
Initialize SRRIP state
Heartbeat CPU 0 instructions: 10000000 cycles: 2819851 heartbeat IPC: 3.54629 cumulative IPC: 3.54629 (Simulation time: 0 hr 0 min 33 sec) 

Warmup complete CPU 0 instructions: 10000004 cycles: 2819852 (Simulation time: 0 hr 0 min 33 sec) 

Heartbeat CPU 0 instructions: 20000004 cycles: 6546598 heartbeat IPC: 2.68331 cumulative IPC: 2.68331 (Simulation time: 0 hr 1 min 4 sec) 
Heartbeat CPU 0 instructions: 30000001 cycles: 10290479 heartbeat IPC: 2.67102 cumulative IPC: 2.67715 (Simulation time: 0 hr 1 min 35 sec) 
Heartbeat CPU 0 instructions: 40000000 cycles: 13985304 heartbeat IPC: 2.70649 cumulative IPC: 2.68686 (Simulation time: 0 hr 2 min 28 sec) 
Heartbeat CPU 0 instructions: 50000001 cycles: 18357436 heartbeat IPC: 2.28721 cumulative IPC: 2.5744 (Simulation time: 0 hr 3 min 12 sec) 
Heartbeat CPU 0 instructions: 60000000 cycles: 22346420 heartbeat IPC: 2.5069 cumulative IPC: 2.56061 (Simulation time: 0 hr 3 min 44 sec) 
Heartbeat CPU 0 instructions: 70000000 cycles: 26297238 heartbeat IPC: 2.53112 cumulative IPC: 2.55565 (Simulation time: 0 hr 4 min 18 sec) 
Heartbeat CPU 0 instructions: 80000001 cycles: 30023941 heartbeat IPC: 2.68334 cumulative IPC: 2.57314 (Simulation time: 0 hr 5 min 3 sec) 
Heartbeat CPU 0 instructions: 90000004 cycles: 34011896 heartbeat IPC: 2.50755 cumulative IPC: 2.56476 (Simulation time: 0 hr 5 min 46 sec) 
Heartbeat CPU 0 instructions: 100000001 cycles: 37623344 heartbeat IPC: 2.76897 cumulative IPC: 2.58595 (Simulation time: 0 hr 6 min 18 sec) 
Heartbeat CPU 0 instructions: 110000002 cycles: 41384150 heartbeat IPC: 2.659 cumulative IPC: 2.59307 (Simulation time: 0 hr 6 min 51 sec) 
Finished CPU 0 instructions: 100000003 cycles: 38564299 cumulative IPC: 2.59307 (Simulation time: 0 hr 6 min 51 sec) 

ChampSim completed all CPUs

Region of Interest Statistics

CPU 0 cumulative IPC: 2.59307 instructions: 100000003 cycles: 38564299
cpu0_DTLB TOTAL     ACCESS:   14473870  HIT:   14446589  MISS:      27281
cpu0_DTLB LOAD      ACCESS:   12815880  HIT:   12789710  MISS:      26170
cpu0_DTLB RFO       ACCESS:    1657990  HIT:    1656879  MISS:       1111
cpu0_DTLB PREFETCH  ACCESS:          0  HIT:          0  MISS:          0
cpu0_DTLB WRITEBACK ACCESS:          0  HIT:          0  MISS:          0
cpu0_DTLB TRANSLATION ACCESS:          0  HIT:          0  MISS:          0
cpu0_DTLB PREFETCH  REQUESTED:          0  ISSUED:          0  USEFUL:          0  USELESS:          0
cpu0_DTLB AVERAGE MISS LATENCY: 14.9456 cycles
cpu0_ITLB TOTAL     ACCESS:    5691788  HIT:    5691760  MISS:         28
cpu0_ITLB LOAD      ACCESS:    5691788  HIT:    5691760  MISS:         28
cpu0_ITLB RFO       ACCESS:          0  HIT:          0  MISS:          0
cpu0_ITLB PREFETCH  ACCESS:          0  HIT:          0  MISS:          0
cpu0_ITLB WRITEBACK ACCESS:          0  HIT:          0  MISS:          0
cpu0_ITLB TRANSLATION ACCESS:          0  HIT:          0  MISS:          0
cpu0_ITLB PREFETCH  REQUESTED:          0  ISSUED:          0  USEFUL:          0  USELESS:          0
cpu0_ITLB AVERAGE MISS LATENCY: 9 cycles
cpu0_L1I TOTAL     ACCESS:     869564  HIT:     868812  MISS:        752
cpu0_L1I LOAD      ACCESS:     869564  HIT:     868812  MISS:        752
cpu0_L1I RFO       ACCESS:          0  HIT:          0  MISS:          0
cpu0_L1I PREFETCH  ACCESS:          0  HIT:          0  MISS:          0
cpu0_L1I WRITEBACK ACCESS:          0  HIT:          0  MISS:          0
cpu0_L1I TRANSLATION ACCESS:          0  HIT:          0  MISS:          0
cpu0_L1I PREFETCH  REQUESTED:          0  ISSUED:          0  USEFUL:          0  USELESS:          0
cpu0_L1I AVERAGE MISS LATENCY: 75.0293 cycles
cpu0_STLB TOTAL     ACCESS:      27309  HIT:      26535  MISS:        774
cpu0_STLB LOAD      ACCESS:      26198  HIT:      25858  MISS:        340
cpu0_STLB RFO       ACCESS:       1111  HIT:        677  MISS:        434
cpu0_STLB PREFETCH  ACCESS:          0  HIT:          0  MISS:          0
cpu0_STLB WRITEBACK ACCESS:          0  HIT:          0  MISS:          0
cpu0_STLB TRANSLATION ACCESS:          0  HIT:          0  MISS:          0
cpu0_STLB PREFETCH  REQUESTED:          0  ISSUED:          0  USEFUL:          0  USELESS:          0
cpu0_STLB AVERAGE MISS LATENCY: 209.491 cycles
cpu0_L1D TOTAL     ACCESS:   16694359  HIT:   15367067  MISS:    1327292
cpu0_L1D LOAD      ACCESS:   11976263  HIT:   10701173  MISS:    1275090
cpu0_L1D RFO       ACCESS:    4717325  HIT:    4665170  MISS:      52155
cpu0_L1D PREFETCH  ACCESS:          0  HIT:          0  MISS:          0
cpu0_L1D WRITEBACK ACCESS:          0  HIT:          0  MISS:          0
cpu0_L1D TRANSLATION ACCESS:        771  HIT:        724  MISS:         47
cpu0_L1D PREFETCH  REQUESTED:          0  ISSUED:          0  USEFUL:          0  USELESS:          0
cpu0_L1D AVERAGE MISS LATENCY: 31.0058 cycles
cpu0_L2C TOTAL     ACCESS:    1837947  HIT:    1545989  MISS:     291958
cpu0_L2C LOAD      ACCESS:    1275831  HIT:    1023135  MISS:     252696
cpu0_L2C RFO       ACCESS:      52155  HIT:      13807  MISS:      38348
cpu0_L2C PREFETCH  ACCESS:          0  HIT:          0  MISS:          0
cpu0_L2C WRITEBACK ACCESS:     509914  HIT:     509016  MISS:        898
cpu0_L2C TRANSLATION ACCESS:         47  HIT:         31  MISS:         16
cpu0_L2C PREFETCH  REQUESTED:          0  ISSUED:          0  USEFUL:          0  USELESS:          0
cpu0_L2C AVERAGE MISS LATENCY: 90.4105 cycles
LLC TOTAL     ACCESS:     430998  HIT:     310543  MISS:     120455
LLC LOAD      ACCESS:     252695  HIT:     178026  MISS:      74669
LLC RFO       ACCESS:      38343  HIT:       8684  MISS:      29659
LLC PREFETCH  ACCESS:          0  HIT:          0  MISS:          0
LLC WRITEBACK ACCESS:     139944  HIT:     123820  MISS:      16124
LLC TRANSLATION ACCESS:         16  HIT:         13  MISS:          3
LLC PREFETCH  REQUESTED:          0  ISSUED:          0  USEFUL:          0  USELESS:          0
LLC AVERAGE MISS LATENCY: 168.22 cycles
Insertion Distribution: 
	LOAD 4227 0 0 0 0 0 27048 50831 
	RFO 7938 0 0 0 0 0 13707 14074 
	PREF 0 0 0 0 0 0 0 0 
	WRITEBACK 0 0 0 0 0 0 0 16124 
	 0 0 0 0 0 0 13 3 
Total Prefetch Downgrades: 0

DRAM Statistics
 CHANNEL 0
 RQ ROW_BUFFER_HIT:      64092  ROW_BUFFER_MISS:      40063
 DBUS AVG_CONGESTED_CYCLE:    3.93965
 WQ ROW_BUFFER_HIT:       4091  ROW_BUFFER_MISS:      21285  FULL:      16750


CPU 0 Branch Prediction Accuracy: 96.6151% MPKI: 1.9742 Average ROB Occupancy at Mispredict: 165.347
Branch type MPKI
BRANCH_DIRECT_JUMP: 0.00017
BRANCH_INDIRECT: 0.00062
BRANCH_CONDITIONAL: 1.97308
BRANCH_DIRECT_CALL: 0.00017
BRANCH_INDIRECT_CALL: 0
BRANCH_RETURN: 0.00016

