
*** ChampSim Multicore Out-of-Order Simulator ***

Warmup Instructions: 10000000
Simulation Instructions: 100000000
Number of CPUs: 1
Off-chip DRAM Size: 4 GiB Channels: 1 Width: 64-bit Data Rate: 3200 MT/s

VirtualMemory physical capacity: 8588881920 num_ppages: 2096895
VirtualMemory page size: 4096 log2_page_size: 12

CPU 0 runs /datasets/cs240c-wi22-a00-public/data/Assignment2/cactusADM_1495B.trace.xz
CPU 0 Bimodal branch predictor
Basic BTB sets: 1024 ways: 8 indirect buffer size: 4096 RAS size: 64
Initialize SRRIP state
Heartbeat CPU 0 instructions: 10000001 cycles: 3702115 heartbeat IPC: 2.70116 cumulative IPC: 2.70116 (Simulation time: 0 hr 0 min 53 sec) 

Warmup complete CPU 0 instructions: 10000001 cycles: 3702115 (Simulation time: 0 hr 0 min 53 sec) 

Heartbeat CPU 0 instructions: 20000001 cycles: 11213894 heartbeat IPC: 1.33124 cumulative IPC: 1.33124 (Simulation time: 0 hr 2 min 20 sec) 
Heartbeat CPU 0 instructions: 30000004 cycles: 19734068 heartbeat IPC: 1.17369 cumulative IPC: 1.24751 (Simulation time: 0 hr 3 min 49 sec) 
Heartbeat CPU 0 instructions: 40000001 cycles: 29660444 heartbeat IPC: 1.00742 cumulative IPC: 1.1557 (Simulation time: 0 hr 5 min 16 sec) 
Heartbeat CPU 0 instructions: 50000000 cycles: 38411792 heartbeat IPC: 1.14268 cumulative IPC: 1.15242 (Simulation time: 0 hr 6 min 43 sec) 
Heartbeat CPU 0 instructions: 60000000 cycles: 45654550 heartbeat IPC: 1.38069 cumulative IPC: 1.19183 (Simulation time: 0 hr 7 min 58 sec) 
Heartbeat CPU 0 instructions: 70000000 cycles: 53991788 heartbeat IPC: 1.19944 cumulative IPC: 1.19309 (Simulation time: 0 hr 9 min 15 sec) 
Heartbeat CPU 0 instructions: 80000001 cycles: 62473352 heartbeat IPC: 1.17903 cumulative IPC: 1.19106 (Simulation time: 0 hr 10 min 36 sec) 
Heartbeat CPU 0 instructions: 90000002 cycles: 71216027 heartbeat IPC: 1.14381 cumulative IPC: 1.18494 (Simulation time: 0 hr 11 min 56 sec) 
Heartbeat CPU 0 instructions: 100000003 cycles: 79780176 heartbeat IPC: 1.16766 cumulative IPC: 1.183 (Simulation time: 0 hr 13 min 17 sec) 
Heartbeat CPU 0 instructions: 110000004 cycles: 85762331 heartbeat IPC: 1.67164 cumulative IPC: 1.21862 (Simulation time: 0 hr 14 min 26 sec) 
Finished CPU 0 instructions: 100000003 cycles: 82060216 cumulative IPC: 1.21862 (Simulation time: 0 hr 14 min 26 sec) 

ChampSim completed all CPUs

Region of Interest Statistics

CPU 0 cumulative IPC: 1.21862 instructions: 100000003 cycles: 82060216
cpu0_DTLB TOTAL     ACCESS:   21514568  HIT:   19741472  MISS:    1773096
cpu0_DTLB LOAD      ACCESS:   17689442  HIT:   16480086  MISS:    1209356
cpu0_DTLB RFO       ACCESS:    3825126  HIT:    3261386  MISS:     563740
cpu0_DTLB PREFETCH  ACCESS:          0  HIT:          0  MISS:          0
cpu0_DTLB WRITEBACK ACCESS:          0  HIT:          0  MISS:          0
cpu0_DTLB TRANSLATION ACCESS:          0  HIT:          0  MISS:          0
cpu0_DTLB PREFETCH  REQUESTED:          0  ISSUED:          0  USEFUL:          0  USELESS:          0
cpu0_DTLB AVERAGE MISS LATENCY: 16.6528 cycles
cpu0_ITLB TOTAL     ACCESS:    1615210  HIT:    1615210  MISS:          0
cpu0_ITLB LOAD      ACCESS:    1615210  HIT:    1615210  MISS:          0
cpu0_ITLB RFO       ACCESS:          0  HIT:          0  MISS:          0
cpu0_ITLB PREFETCH  ACCESS:          0  HIT:          0  MISS:          0
cpu0_ITLB WRITEBACK ACCESS:          0  HIT:          0  MISS:          0
cpu0_ITLB TRANSLATION ACCESS:          0  HIT:          0  MISS:          0
cpu0_ITLB PREFETCH  REQUESTED:          0  ISSUED:          0  USEFUL:          0  USELESS:          0
cpu0_ITLB AVERAGE MISS LATENCY: -nan cycles
cpu0_L1I TOTAL     ACCESS:    8437792  HIT:    8437792  MISS:          0
cpu0_L1I LOAD      ACCESS:    8437792  HIT:    8437792  MISS:          0
cpu0_L1I RFO       ACCESS:          0  HIT:          0  MISS:          0
cpu0_L1I PREFETCH  ACCESS:          0  HIT:          0  MISS:          0
cpu0_L1I WRITEBACK ACCESS:          0  HIT:          0  MISS:          0
cpu0_L1I TRANSLATION ACCESS:          0  HIT:          0  MISS:          0
cpu0_L1I PREFETCH  REQUESTED:          0  ISSUED:          0  USEFUL:          0  USELESS:          0
cpu0_L1I AVERAGE MISS LATENCY: -nan cycles
cpu0_STLB TOTAL     ACCESS:    1773096  HIT:     906466  MISS:     866630
cpu0_STLB LOAD      ACCESS:    1209356  HIT:     648699  MISS:     560657
cpu0_STLB RFO       ACCESS:     563740  HIT:     257767  MISS:     305973
cpu0_STLB PREFETCH  ACCESS:          0  HIT:          0  MISS:          0
cpu0_STLB WRITEBACK ACCESS:          0  HIT:          0  MISS:          0
cpu0_STLB TRANSLATION ACCESS:          0  HIT:          0  MISS:          0
cpu0_STLB PREFETCH  REQUESTED:          0  ISSUED:          0  USEFUL:          0  USELESS:          0
cpu0_STLB AVERAGE MISS LATENCY: 15.5343 cycles
cpu0_L1D TOTAL     ACCESS:   37506801  HIT:   36218576  MISS:    1288225
cpu0_L1D LOAD      ACCESS:   25709025  HIT:   24672951  MISS:    1036074
cpu0_L1D RFO       ACCESS:   10931860  HIT:   10686628  MISS:     245232
cpu0_L1D PREFETCH  ACCESS:          0  HIT:          0  MISS:          0
cpu0_L1D WRITEBACK ACCESS:          0  HIT:          0  MISS:          0
cpu0_L1D TRANSLATION ACCESS:     865916  HIT:     858997  MISS:       6919
cpu0_L1D PREFETCH  REQUESTED:          0  ISSUED:          0  USEFUL:          0  USELESS:          0
cpu0_L1D AVERAGE MISS LATENCY: 280.328 cycles
cpu0_L2C TOTAL     ACCESS:    1537007  HIT:     676854  MISS:     860153
cpu0_L2C LOAD      ACCESS:    1036074  HIT:     421655  MISS:     614419
cpu0_L2C RFO       ACCESS:     245232  HIT:          0  MISS:     245232
cpu0_L2C PREFETCH  ACCESS:          0  HIT:          0  MISS:          0
cpu0_L2C WRITEBACK ACCESS:     248782  HIT:     248593  MISS:        189
cpu0_L2C TRANSLATION ACCESS:       6919  HIT:       6606  MISS:        313
cpu0_L2C PREFETCH  REQUESTED:          0  ISSUED:          0  USEFUL:          0  USELESS:          0
cpu0_L2C AVERAGE MISS LATENCY: 403.344 cycles
LLC TOTAL     ACCESS:    1105572  HIT:     317745  MISS:     787827
LLC LOAD      ACCESS:     614419  HIT:     156579  MISS:     457840
LLC RFO       ACCESS:     245232  HIT:      70758  MISS:     174474
LLC PREFETCH  ACCESS:          0  HIT:          0  MISS:          0
LLC WRITEBACK ACCESS:     245608  HIT:      90384  MISS:     155224
LLC TRANSLATION ACCESS:        313  HIT:         24  MISS:        289
LLC PREFETCH  REQUESTED:          0  ISSUED:          0  USEFUL:          0  USELESS:          0
LLC AVERAGE MISS LATENCY: 417.448 cycles
Insertion Distribution: 
	LOAD 68374 0 65069 391254 
	RFO 14841 0 20895 169233 
	PREF 0 0 0 0 
	WRITEBACK 0 0 0 165666 
	 1 0 69 269 
Total Prefetch Downgrades: 0

DRAM Statistics
 CHANNEL 0
 RQ ROW_BUFFER_HIT:       5830  ROW_BUFFER_MISS:     626772
 DBUS AVG_CONGESTED_CYCLE:    3.97494
 WQ ROW_BUFFER_HIT:      17528  ROW_BUFFER_MISS:     198219  FULL:        419


CPU 0 Branch Prediction Accuracy: 97.8411% MPKI: 0.04284 Average ROB Occupancy at Mispredict: 285.452
Branch type MPKI
BRANCH_DIRECT_JUMP: 0
BRANCH_INDIRECT: 0
BRANCH_CONDITIONAL: 0.04284
BRANCH_DIRECT_CALL: 0
BRANCH_INDIRECT_CALL: 0
BRANCH_RETURN: 0

