
*** ChampSim Multicore Out-of-Order Simulator ***

Warmup Instructions: 10000000
Simulation Instructions: 100000000
Number of CPUs: 1
Off-chip DRAM Size: 4 GiB Channels: 1 Width: 64-bit Data Rate: 3200 MT/s

VirtualMemory physical capacity: 8588881920 num_ppages: 2096895
VirtualMemory page size: 4096 log2_page_size: 12

CPU 0 runs /datasets/cs240c-wi22-a00-public/data/Assignment2/omnetpp_340B.trace.xz
CPU 0 Bimodal branch predictor
Basic BTB sets: 1024 ways: 8 indirect buffer size: 4096 RAS size: 64
Initialize SRRIP state
Heartbeat CPU 0 instructions: 10000002 cycles: 2500207 heartbeat IPC: 3.99967 cumulative IPC: 3.99967 (Simulation time: 0 hr 0 min 31 sec) 

Warmup complete CPU 0 instructions: 10000002 cycles: 2500207 (Simulation time: 0 hr 0 min 31 sec) 

Heartbeat CPU 0 instructions: 20000000 cycles: 27204281 heartbeat IPC: 0.404791 cumulative IPC: 0.404791 (Simulation time: 0 hr 1 min 41 sec) 
Heartbeat CPU 0 instructions: 30000002 cycles: 52323140 heartbeat IPC: 0.398107 cumulative IPC: 0.401422 (Simulation time: 0 hr 2 min 49 sec) 
Heartbeat CPU 0 instructions: 40000000 cycles: 77115382 heartbeat IPC: 0.403352 cumulative IPC: 0.402063 (Simulation time: 0 hr 3 min 56 sec) 
Heartbeat CPU 0 instructions: 50000002 cycles: 102390841 heartbeat IPC: 0.395641 cumulative IPC: 0.400438 (Simulation time: 0 hr 5 min 0 sec) 
Heartbeat CPU 0 instructions: 60000001 cycles: 128342457 heartbeat IPC: 0.385332 cumulative IPC: 0.397323 (Simulation time: 0 hr 6 min 10 sec) 
Heartbeat CPU 0 instructions: 70000003 cycles: 154100696 heartbeat IPC: 0.388225 cumulative IPC: 0.395777 (Simulation time: 0 hr 7 min 16 sec) 
Heartbeat CPU 0 instructions: 80000003 cycles: 180062068 heartbeat IPC: 0.385188 cumulative IPC: 0.394229 (Simulation time: 0 hr 8 min 28 sec) 
Heartbeat CPU 0 instructions: 90000000 cycles: 206245165 heartbeat IPC: 0.381926 cumulative IPC: 0.392648 (Simulation time: 0 hr 9 min 35 sec) 
Heartbeat CPU 0 instructions: 100000002 cycles: 231895296 heartbeat IPC: 0.389862 cumulative IPC: 0.392336 (Simulation time: 0 hr 10 min 47 sec) 
Heartbeat CPU 0 instructions: 110000000 cycles: 256934543 heartbeat IPC: 0.399373 cumulative IPC: 0.393029 (Simulation time: 0 hr 11 min 56 sec) 
Finished CPU 0 instructions: 100000000 cycles: 254434338 cumulative IPC: 0.393029 (Simulation time: 0 hr 11 min 56 sec) 

ChampSim completed all CPUs

Region of Interest Statistics

CPU 0 cumulative IPC: 0.393029 instructions: 100000000 cycles: 254434338
cpu0_DTLB TOTAL     ACCESS:   23844714  HIT:   21947655  MISS:    1897059
cpu0_DTLB LOAD      ACCESS:   13875477  HIT:   12294367  MISS:    1581110
cpu0_DTLB RFO       ACCESS:    9969237  HIT:    9653288  MISS:     315949
cpu0_DTLB PREFETCH  ACCESS:          0  HIT:          0  MISS:          0
cpu0_DTLB WRITEBACK ACCESS:          0  HIT:          0  MISS:          0
cpu0_DTLB TRANSLATION ACCESS:          0  HIT:          0  MISS:          0
cpu0_DTLB PREFETCH  REQUESTED:          0  ISSUED:          0  USEFUL:          0  USELESS:          0
cpu0_DTLB AVERAGE MISS LATENCY: 13.131 cycles
cpu0_ITLB TOTAL     ACCESS:   11128347  HIT:   11092980  MISS:      35367
cpu0_ITLB LOAD      ACCESS:   11128347  HIT:   11092980  MISS:      35367
cpu0_ITLB RFO       ACCESS:          0  HIT:          0  MISS:          0
cpu0_ITLB PREFETCH  ACCESS:          0  HIT:          0  MISS:          0
cpu0_ITLB WRITEBACK ACCESS:          0  HIT:          0  MISS:          0
cpu0_ITLB TRANSLATION ACCESS:          0  HIT:          0  MISS:          0
cpu0_ITLB PREFETCH  REQUESTED:          0  ISSUED:          0  USEFUL:          0  USELESS:          0
cpu0_ITLB AVERAGE MISS LATENCY: 9.25733 cycles
cpu0_L1I TOTAL     ACCESS:    8347325  HIT:    8340976  MISS:       6349
cpu0_L1I LOAD      ACCESS:    8347325  HIT:    8340976  MISS:       6349
cpu0_L1I RFO       ACCESS:          0  HIT:          0  MISS:          0
cpu0_L1I PREFETCH  ACCESS:          0  HIT:          0  MISS:          0
cpu0_L1I WRITEBACK ACCESS:          0  HIT:          0  MISS:          0
cpu0_L1I TRANSLATION ACCESS:          0  HIT:          0  MISS:          0
cpu0_L1I PREFETCH  REQUESTED:          0  ISSUED:          0  USEFUL:          0  USELESS:          0
cpu0_L1I AVERAGE MISS LATENCY: 59.6492 cycles
cpu0_STLB TOTAL     ACCESS:    1932426  HIT:    1457232  MISS:     475194
cpu0_STLB LOAD      ACCESS:    1616477  HIT:    1262579  MISS:     353898
cpu0_STLB RFO       ACCESS:     315949  HIT:     194653  MISS:     121296
cpu0_STLB PREFETCH  ACCESS:          0  HIT:          0  MISS:          0
cpu0_STLB WRITEBACK ACCESS:          0  HIT:          0  MISS:          0
cpu0_STLB TRANSLATION ACCESS:          0  HIT:          0  MISS:          0
cpu0_STLB PREFETCH  REQUESTED:          0  ISSUED:          0  USEFUL:          0  USELESS:          0
cpu0_STLB AVERAGE MISS LATENCY: 16.0403 cycles
cpu0_L1D TOTAL     ACCESS:   31416936  HIT:   28919034  MISS:    2497902
cpu0_L1D LOAD      ACCESS:   15706642  HIT:   13523850  MISS:    2182792
cpu0_L1D RFO       ACCESS:   15269879  HIT:   14959271  MISS:     310608
cpu0_L1D PREFETCH  ACCESS:          0  HIT:          0  MISS:          0
cpu0_L1D WRITEBACK ACCESS:          0  HIT:          0  MISS:          0
cpu0_L1D TRANSLATION ACCESS:     440415  HIT:     435913  MISS:       4502
cpu0_L1D PREFETCH  REQUESTED:          0  ISSUED:          0  USEFUL:          0  USELESS:          0
cpu0_L1D AVERAGE MISS LATENCY: 143.356 cycles
cpu0_L2C TOTAL     ACCESS:    3581367  HIT:    1431375  MISS:    2149992
cpu0_L2C LOAD      ACCESS:    2189104  HIT:     330895  MISS:    1858209
cpu0_L2C RFO       ACCESS:     310608  HIT:      22198  MISS:     288410
cpu0_L2C PREFETCH  ACCESS:          0  HIT:          0  MISS:          0
cpu0_L2C WRITEBACK ACCESS:    1077153  HIT:    1074879  MISS:       2274
cpu0_L2C TRANSLATION ACCESS:       4502  HIT:       3403  MISS:       1099
cpu0_L2C PREFETCH  REQUESTED:          0  ISSUED:          0  USEFUL:          0  USELESS:          0
cpu0_L2C AVERAGE MISS LATENCY: 153.759 cycles
LLC TOTAL     ACCESS:    3079076  HIT:    1095961  MISS:    1983115
LLC LOAD      ACCESS:    1858208  HIT:     436019  MISS:    1422189
LLC RFO       ACCESS:     288410  HIT:      66450  MISS:     221960
LLC PREFETCH  ACCESS:          0  HIT:          0  MISS:          0
LLC WRITEBACK ACCESS:     931359  HIT:     592515  MISS:     338844
LLC TRANSLATION ACCESS:       1099  HIT:        977  MISS:        122
LLC PREFETCH  REQUESTED:          0  ISSUED:          0  USEFUL:          0  USELESS:          0
LLC AVERAGE MISS LATENCY: 143.955 cycles
Insertion Distribution: 
	LOAD 170437 0 224550 1178328 
	RFO 60514 0 97025 86711 
	PREF 0 0 0 0 
	WRITEBACK 0 0 0 366606 
	 9 0 55 83 
Total Prefetch Downgrades: 0

DRAM Statistics
 CHANNEL 0
 RQ ROW_BUFFER_HIT:      91796  ROW_BUFFER_MISS:    1552373
 DBUS AVG_CONGESTED_CYCLE:    3.91747
 WQ ROW_BUFFER_HIT:     170705  ROW_BUFFER_MISS:     499077  FULL:          0


CPU 0 Branch Prediction Accuracy: 94.4212% MPKI: 13.4017 Average ROB Occupancy at Mispredict: 52.3241
Branch type MPKI
BRANCH_DIRECT_JUMP: 0.00017
BRANCH_INDIRECT: 0.04543
BRANCH_CONDITIONAL: 13.2857
BRANCH_DIRECT_CALL: 8e-05
BRANCH_INDIRECT_CALL: 0.04734
BRANCH_RETURN: 0.02301

