
*** ChampSim Multicore Out-of-Order Simulator ***

Warmup Instructions: 10000000
Simulation Instructions: 100000000
Number of CPUs: 1
Off-chip DRAM Size: 4 GiB Channels: 1 Width: 64-bit Data Rate: 3200 MT/s

VirtualMemory physical capacity: 8588881920 num_ppages: 2096895
VirtualMemory page size: 4096 log2_page_size: 12

CPU 0 runs /datasets/cs240c-wi22-a00-public/data/Assignment2/cactusADM_734B.trace.xz
CPU 0 Bimodal branch predictor
Basic BTB sets: 1024 ways: 8 indirect buffer size: 4096 RAS size: 64
Initialize SRRIP state
Heartbeat CPU 0 instructions: 10000002 cycles: 3647078 heartbeat IPC: 2.74192 cumulative IPC: 2.74192 (Simulation time: 0 hr 0 min 47 sec) 

Warmup complete CPU 0 instructions: 10000002 cycles: 3647078 (Simulation time: 0 hr 0 min 47 sec) 

Heartbeat CPU 0 instructions: 20000004 cycles: 13623311 heartbeat IPC: 1.00238 cumulative IPC: 1.00238 (Simulation time: 0 hr 2 min 23 sec) 
Heartbeat CPU 0 instructions: 30000001 cycles: 22987273 heartbeat IPC: 1.06792 cumulative IPC: 1.03412 (Simulation time: 0 hr 3 min 58 sec) 
Heartbeat CPU 0 instructions: 40000004 cycles: 32908471 heartbeat IPC: 1.00794 cumulative IPC: 1.02524 (Simulation time: 0 hr 5 min 36 sec) 
Heartbeat CPU 0 instructions: 50000001 cycles: 41945686 heartbeat IPC: 1.10654 cumulative IPC: 1.04442 (Simulation time: 0 hr 7 min 6 sec) 
Heartbeat CPU 0 instructions: 60000002 cycles: 48016454 heartbeat IPC: 1.64724 cumulative IPC: 1.1269 (Simulation time: 0 hr 8 min 18 sec) 
Heartbeat CPU 0 instructions: 70000003 cycles: 57216194 heartbeat IPC: 1.08699 cumulative IPC: 1.12005 (Simulation time: 0 hr 9 min 46 sec) 
Heartbeat CPU 0 instructions: 80000002 cycles: 66018852 heartbeat IPC: 1.13602 cumulative IPC: 1.1223 (Simulation time: 0 hr 11 min 13 sec) 
Heartbeat CPU 0 instructions: 90000000 cycles: 75045353 heartbeat IPC: 1.10785 cumulative IPC: 1.12048 (Simulation time: 0 hr 12 min 39 sec) 
Heartbeat CPU 0 instructions: 100000004 cycles: 81180816 heartbeat IPC: 1.62987 cumulative IPC: 1.16079 (Simulation time: 0 hr 13 min 54 sec) 
Heartbeat CPU 0 instructions: 110000001 cycles: 89814444 heartbeat IPC: 1.15826 cumulative IPC: 1.16053 (Simulation time: 0 hr 15 min 17 sec) 
Finished CPU 0 instructions: 100000004 cycles: 86167367 cumulative IPC: 1.16053 (Simulation time: 0 hr 15 min 17 sec) 

ChampSim completed all CPUs

Region of Interest Statistics

CPU 0 cumulative IPC: 1.16053 instructions: 100000004 cycles: 86167367
cpu0_DTLB TOTAL     ACCESS:   21648187  HIT:   19802577  MISS:    1845610
cpu0_DTLB LOAD      ACCESS:   17781237  HIT:   16523002  MISS:    1258235
cpu0_DTLB RFO       ACCESS:    3866950  HIT:    3279575  MISS:     587375
cpu0_DTLB PREFETCH  ACCESS:          0  HIT:          0  MISS:          0
cpu0_DTLB WRITEBACK ACCESS:          0  HIT:          0  MISS:          0
cpu0_DTLB TRANSLATION ACCESS:          0  HIT:          0  MISS:          0
cpu0_DTLB PREFETCH  REQUESTED:          0  ISSUED:          0  USEFUL:          0  USELESS:          0
cpu0_DTLB AVERAGE MISS LATENCY: 18.7568 cycles
cpu0_ITLB TOTAL     ACCESS:    1528889  HIT:    1528889  MISS:          0
cpu0_ITLB LOAD      ACCESS:    1528889  HIT:    1528889  MISS:          0
cpu0_ITLB RFO       ACCESS:          0  HIT:          0  MISS:          0
cpu0_ITLB PREFETCH  ACCESS:          0  HIT:          0  MISS:          0
cpu0_ITLB WRITEBACK ACCESS:          0  HIT:          0  MISS:          0
cpu0_ITLB TRANSLATION ACCESS:          0  HIT:          0  MISS:          0
cpu0_ITLB PREFETCH  REQUESTED:          0  ISSUED:          0  USEFUL:          0  USELESS:          0
cpu0_ITLB AVERAGE MISS LATENCY: -nan cycles
cpu0_L1I TOTAL     ACCESS:    7873394  HIT:    7873391  MISS:          3
cpu0_L1I LOAD      ACCESS:    7873394  HIT:    7873391  MISS:          3
cpu0_L1I RFO       ACCESS:          0  HIT:          0  MISS:          0
cpu0_L1I PREFETCH  ACCESS:          0  HIT:          0  MISS:          0
cpu0_L1I WRITEBACK ACCESS:          0  HIT:          0  MISS:          0
cpu0_L1I TRANSLATION ACCESS:          0  HIT:          0  MISS:          0
cpu0_L1I PREFETCH  REQUESTED:          0  ISSUED:          0  USEFUL:          0  USELESS:          0
cpu0_L1I AVERAGE MISS LATENCY: 720.667 cycles
cpu0_STLB TOTAL     ACCESS:    1845610  HIT:     892060  MISS:     953550
cpu0_STLB LOAD      ACCESS:    1258235  HIT:     642320  MISS:     615915
cpu0_STLB RFO       ACCESS:     587375  HIT:     249740  MISS:     337635
cpu0_STLB PREFETCH  ACCESS:          0  HIT:          0  MISS:          0
cpu0_STLB WRITEBACK ACCESS:          0  HIT:          0  MISS:          0
cpu0_STLB TRANSLATION ACCESS:          0  HIT:          0  MISS:          0
cpu0_STLB PREFETCH  REQUESTED:          0  ISSUED:          0  USEFUL:          0  USELESS:          0
cpu0_STLB AVERAGE MISS LATENCY: 18.7608 cycles
cpu0_L1D TOTAL     ACCESS:   37549359  HIT:   36229120  MISS:    1320239
cpu0_L1D LOAD      ACCESS:   25681409  HIT:   24630692  MISS:    1050717
cpu0_L1D RFO       ACCESS:   10915354  HIT:   10651206  MISS:     264148
cpu0_L1D PREFETCH  ACCESS:          0  HIT:          0  MISS:          0
cpu0_L1D WRITEBACK ACCESS:          0  HIT:          0  MISS:          0
cpu0_L1D TRANSLATION ACCESS:     952596  HIT:     947222  MISS:       5374
cpu0_L1D PREFETCH  REQUESTED:          0  ISSUED:          0  USEFUL:          0  USELESS:          0
cpu0_L1D AVERAGE MISS LATENCY: 319.857 cycles
cpu0_L2C TOTAL     ACCESS:    1588195  HIT:     691796  MISS:     896399
cpu0_L2C LOAD      ACCESS:    1050720  HIT:     418912  MISS:     631808
cpu0_L2C RFO       ACCESS:     264148  HIT:          0  MISS:     264148
cpu0_L2C PREFETCH  ACCESS:          0  HIT:          0  MISS:          0
cpu0_L2C WRITEBACK ACCESS:     267953  HIT:     267758  MISS:        195
cpu0_L2C TRANSLATION ACCESS:       5374  HIT:       5126  MISS:        248
cpu0_L2C PREFETCH  REQUESTED:          0  ISSUED:          0  USEFUL:          0  USELESS:          0
cpu0_L2C AVERAGE MISS LATENCY: 454.875 cycles
LLC TOTAL     ACCESS:    1162859  HIT:     328379  MISS:     834480
LLC LOAD      ACCESS:     631808  HIT:     163953  MISS:     467855
LLC RFO       ACCESS:     264148  HIT:      58036  MISS:     206112
LLC PREFETCH  ACCESS:          0  HIT:          0  MISS:          0
LLC WRITEBACK ACCESS:     266655  HIT:     106377  MISS:     160278
LLC TRANSLATION ACCESS:        248  HIT:         13  MISS:        235
LLC PREFETCH  REQUESTED:          0  ISSUED:          0  USEFUL:          0  USELESS:          0
LLC AVERAGE MISS LATENCY: 466.073 cycles
Insertion Distribution: 
	LOAD 37110 0 73151 408782 
	RFO 26949 0 25791 165865 
	PREF 0 0 0 0 
	WRITEBACK 0 0 0 162558 
	 0 0 56 221 
Total Prefetch Downgrades: 0

DRAM Statistics
 CHANNEL 0
 RQ ROW_BUFFER_HIT:       7828  ROW_BUFFER_MISS:     666364
 DBUS AVG_CONGESTED_CYCLE:    3.97994
 WQ ROW_BUFFER_HIT:      15855  ROW_BUFFER_MISS:     206771  FULL:        490


CPU 0 Branch Prediction Accuracy: 97.7528% MPKI: 0.04677 Average ROB Occupancy at Mispredict: 283.883
Branch type MPKI
BRANCH_DIRECT_JUMP: 0
BRANCH_INDIRECT: 0
BRANCH_CONDITIONAL: 0.04677
BRANCH_DIRECT_CALL: 0
BRANCH_INDIRECT_CALL: 0
BRANCH_RETURN: 0

