
*** ChampSim Multicore Out-of-Order Simulator ***

Warmup Instructions: 10000000
Simulation Instructions: 100000000
Number of CPUs: 1
Off-chip DRAM Size: 4 GiB Channels: 1 Width: 64-bit Data Rate: 3200 MT/s

VirtualMemory physical capacity: 8588881920 num_ppages: 2096895
VirtualMemory page size: 4096 log2_page_size: 12

CPU 0 runs /datasets/cs240c-wi22-a00-public/data/Assignment2/cactusADM_1039B.trace.xz
CPU 0 Bimodal branch predictor
Basic BTB sets: 1024 ways: 8 indirect buffer size: 4096 RAS size: 64
Initialize SRRIP state
Heartbeat CPU 0 instructions: 10000004 cycles: 3647107 heartbeat IPC: 2.7419 cumulative IPC: 2.7419 (Simulation time: 0 hr 0 min 54 sec) 

Warmup complete CPU 0 instructions: 10000004 cycles: 3647107 (Simulation time: 0 hr 0 min 54 sec) 

Heartbeat CPU 0 instructions: 20000004 cycles: 13502375 heartbeat IPC: 1.01469 cumulative IPC: 1.01469 (Simulation time: 0 hr 2 min 38 sec) 
Heartbeat CPU 0 instructions: 30000000 cycles: 22615703 heartbeat IPC: 1.09729 cumulative IPC: 1.05437 (Simulation time: 0 hr 4 min 16 sec) 
Heartbeat CPU 0 instructions: 40000000 cycles: 32088480 heartbeat IPC: 1.05566 cumulative IPC: 1.0548 (Simulation time: 0 hr 5 min 57 sec) 
Heartbeat CPU 0 instructions: 50000004 cycles: 40829384 heartbeat IPC: 1.14405 cumulative IPC: 1.07578 (Simulation time: 0 hr 7 min 36 sec) 
Heartbeat CPU 0 instructions: 60000004 cycles: 47001806 heartbeat IPC: 1.62011 cumulative IPC: 1.15328 (Simulation time: 0 hr 9 min 1 sec) 
Heartbeat CPU 0 instructions: 70000003 cycles: 55550659 heartbeat IPC: 1.16975 cumulative IPC: 1.15599 (Simulation time: 0 hr 10 min 42 sec) 
Heartbeat CPU 0 instructions: 80000004 cycles: 64116008 heartbeat IPC: 1.16749 cumulative IPC: 1.15762 (Simulation time: 0 hr 12 min 23 sec) 
Heartbeat CPU 0 instructions: 90000004 cycles: 72711746 heartbeat IPC: 1.16337 cumulative IPC: 1.15834 (Simulation time: 0 hr 14 min 3 sec) 
Heartbeat CPU 0 instructions: 100000000 cycles: 78726592 heartbeat IPC: 1.66255 cumulative IPC: 1.19873 (Simulation time: 0 hr 15 min 26 sec) 
Heartbeat CPU 0 instructions: 110000001 cycles: 87029294 heartbeat IPC: 1.20443 cumulative IPC: 1.1993 (Simulation time: 0 hr 17 min 2 sec) 
Finished CPU 0 instructions: 100000002 cycles: 83382188 cumulative IPC: 1.1993 (Simulation time: 0 hr 17 min 2 sec) 

ChampSim completed all CPUs

Region of Interest Statistics

CPU 0 cumulative IPC: 1.1993 instructions: 100000002 cycles: 83382188
cpu0_DTLB TOTAL     ACCESS:   22833617  HIT:   20784806  MISS:    2048811
cpu0_DTLB LOAD      ACCESS:   18921649  HIT:   17489257  MISS:    1432392
cpu0_DTLB RFO       ACCESS:    3911968  HIT:    3295549  MISS:     616419
cpu0_DTLB PREFETCH  ACCESS:          0  HIT:          0  MISS:          0
cpu0_DTLB WRITEBACK ACCESS:          0  HIT:          0  MISS:          0
cpu0_DTLB TRANSLATION ACCESS:          0  HIT:          0  MISS:          0
cpu0_DTLB PREFETCH  REQUESTED:          0  ISSUED:          0  USEFUL:          0  USELESS:          0
cpu0_DTLB AVERAGE MISS LATENCY: 16.527 cycles
cpu0_ITLB TOTAL     ACCESS:    1451303  HIT:    1451303  MISS:          0
cpu0_ITLB LOAD      ACCESS:    1451303  HIT:    1451303  MISS:          0
cpu0_ITLB RFO       ACCESS:          0  HIT:          0  MISS:          0
cpu0_ITLB PREFETCH  ACCESS:          0  HIT:          0  MISS:          0
cpu0_ITLB WRITEBACK ACCESS:          0  HIT:          0  MISS:          0
cpu0_ITLB TRANSLATION ACCESS:          0  HIT:          0  MISS:          0
cpu0_ITLB PREFETCH  REQUESTED:          0  ISSUED:          0  USEFUL:          0  USELESS:          0
cpu0_ITLB AVERAGE MISS LATENCY: -nan cycles
cpu0_L1I TOTAL     ACCESS:    8114434  HIT:    8114431  MISS:          3
cpu0_L1I LOAD      ACCESS:    8114434  HIT:    8114431  MISS:          3
cpu0_L1I RFO       ACCESS:          0  HIT:          0  MISS:          0
cpu0_L1I PREFETCH  ACCESS:          0  HIT:          0  MISS:          0
cpu0_L1I WRITEBACK ACCESS:          0  HIT:          0  MISS:          0
cpu0_L1I TRANSLATION ACCESS:          0  HIT:          0  MISS:          0
cpu0_L1I PREFETCH  REQUESTED:          0  ISSUED:          0  USEFUL:          0  USELESS:          0
cpu0_L1I AVERAGE MISS LATENCY: 588.333 cycles
cpu0_STLB TOTAL     ACCESS:    2048811  HIT:    1130655  MISS:     918156
cpu0_STLB LOAD      ACCESS:    1432392  HIT:     835768  MISS:     596624
cpu0_STLB RFO       ACCESS:     616419  HIT:     294887  MISS:     321532
cpu0_STLB PREFETCH  ACCESS:          0  HIT:          0  MISS:          0
cpu0_STLB WRITEBACK ACCESS:          0  HIT:          0  MISS:          0
cpu0_STLB TRANSLATION ACCESS:          0  HIT:          0  MISS:          0
cpu0_STLB PREFETCH  REQUESTED:          0  ISSUED:          0  USEFUL:          0  USELESS:          0
cpu0_STLB AVERAGE MISS LATENCY: 16.6359 cycles
cpu0_L1D TOTAL     ACCESS:   37581880  HIT:   36258170  MISS:    1323710
cpu0_L1D LOAD      ACCESS:   25699983  HIT:   24647581  MISS:    1052402
cpu0_L1D RFO       ACCESS:   10964582  HIT:   10699211  MISS:     265371
cpu0_L1D PREFETCH  ACCESS:          0  HIT:          0  MISS:          0
cpu0_L1D WRITEBACK ACCESS:          0  HIT:          0  MISS:          0
cpu0_L1D TRANSLATION ACCESS:     917315  HIT:     911378  MISS:       5937
cpu0_L1D PREFETCH  REQUESTED:          0  ISSUED:          0  USEFUL:          0  USELESS:          0
cpu0_L1D AVERAGE MISS LATENCY: 298.363 cycles
cpu0_L2C TOTAL     ACCESS:    1592981  HIT:     694167  MISS:     898814
cpu0_L2C LOAD      ACCESS:    1052404  HIT:     419482  MISS:     632922
cpu0_L2C RFO       ACCESS:     265371  HIT:          0  MISS:     265371
cpu0_L2C PREFETCH  ACCESS:          0  HIT:          0  MISS:          0
cpu0_L2C WRITEBACK ACCESS:     269269  HIT:     269057  MISS:        212
cpu0_L2C TRANSLATION ACCESS:       5937  HIT:       5628  MISS:        309
cpu0_L2C PREFETCH  REQUESTED:          0  ISSUED:          0  USEFUL:          0  USELESS:          0
cpu0_L2C AVERAGE MISS LATENCY: 423.188 cycles
LLC TOTAL     ACCESS:    1165765  HIT:     341711  MISS:     824054
LLC LOAD      ACCESS:     632922  HIT:     163204  MISS:     469718
LLC RFO       ACCESS:     265371  HIT:      71476  MISS:     193895
LLC PREFETCH  ACCESS:          0  HIT:          0  MISS:          0
LLC WRITEBACK ACCESS:     267163  HIT:     106970  MISS:     160193
LLC TRANSLATION ACCESS:        309  HIT:         61  MISS:        248
LLC PREFETCH  REQUESTED:          0  ISSUED:          0  USEFUL:          0  USELESS:          0
LLC AVERAGE MISS LATENCY: 438.68 cycles
Insertion Distribution: 
	LOAD 51792 0 67194 400808 
	RFO 17746 0 20212 167218 
	PREF 0 0 0 0 
	WRITEBACK 0 0 0 162901 
	 1 0 57 231 
Total Prefetch Downgrades: 0

DRAM Statistics
 CHANNEL 0
 RQ ROW_BUFFER_HIT:       6639  ROW_BUFFER_MISS:     657221
 DBUS AVG_CONGESTED_CYCLE:    3.97597
 WQ ROW_BUFFER_HIT:      16207  ROW_BUFFER_MISS:     205687  FULL:        528


CPU 0 Branch Prediction Accuracy: 97.7479% MPKI: 0.04701 Average ROB Occupancy at Mispredict: 283.767
Branch type MPKI
BRANCH_DIRECT_JUMP: 0
BRANCH_INDIRECT: 0
BRANCH_CONDITIONAL: 0.04701
BRANCH_DIRECT_CALL: 0
BRANCH_INDIRECT_CALL: 0
BRANCH_RETURN: 0

