
*** ChampSim Multicore Out-of-Order Simulator ***

Warmup Instructions: 10000000
Simulation Instructions: 100000000
Number of CPUs: 1
Off-chip DRAM Size: 4 GiB Channels: 1 Width: 64-bit Data Rate: 3200 MT/s

VirtualMemory physical capacity: 8588881920 num_ppages: 2096895
VirtualMemory page size: 4096 log2_page_size: 12

CPU 0 runs /datasets/cs240c-wi22-a00-public/data/Assignment2/leslie3d_1116B.trace.xz
CPU 0 Bimodal branch predictor
Basic BTB sets: 1024 ways: 8 indirect buffer size: 4096 RAS size: 64
Initialize SRRIP state
Heartbeat CPU 0 instructions: 10000000 cycles: 3692434 heartbeat IPC: 2.70824 cumulative IPC: 2.70824 (Simulation time: 0 hr 0 min 53 sec) 

Warmup complete CPU 0 instructions: 10000005 cycles: 3692435 (Simulation time: 0 hr 0 min 53 sec) 

Heartbeat CPU 0 instructions: 20000000 cycles: 13841818 heartbeat IPC: 0.985281 cumulative IPC: 0.985281 (Simulation time: 0 hr 2 min 35 sec) 
Heartbeat CPU 0 instructions: 30000000 cycles: 24470078 heartbeat IPC: 0.940888 cumulative IPC: 0.962573 (Simulation time: 0 hr 4 min 20 sec) 
Heartbeat CPU 0 instructions: 40000003 cycles: 37615049 heartbeat IPC: 0.760747 cumulative IPC: 0.884366 (Simulation time: 0 hr 6 min 17 sec) 
Heartbeat CPU 0 instructions: 50000000 cycles: 58135843 heartbeat IPC: 0.48731 cumulative IPC: 0.734708 (Simulation time: 0 hr 8 min 54 sec) 
Heartbeat CPU 0 instructions: 60000001 cycles: 106937050 heartbeat IPC: 0.204913 cumulative IPC: 0.484287 (Simulation time: 0 hr 14 min 2 sec) 
Heartbeat CPU 0 instructions: 70000000 cycles: 125313304 heartbeat IPC: 0.544181 cumulative IPC: 0.493336 (Simulation time: 0 hr 16 min 34 sec) 
Heartbeat CPU 0 instructions: 80000001 cycles: 143464695 heartbeat IPC: 0.550922 cumulative IPC: 0.500815 (Simulation time: 0 hr 19 min 5 sec) 
Heartbeat CPU 0 instructions: 90000004 cycles: 161136249 heartbeat IPC: 0.565881 cumulative IPC: 0.508118 (Simulation time: 0 hr 21 min 31 sec) 
Heartbeat CPU 0 instructions: 100000002 cycles: 176499522 heartbeat IPC: 0.650903 cumulative IPC: 0.520812 (Simulation time: 0 hr 23 min 46 sec) 
Heartbeat CPU 0 instructions: 110000001 cycles: 200682820 heartbeat IPC: 0.413508 cumulative IPC: 0.507639 (Simulation time: 0 hr 26 min 36 sec) 
Finished CPU 0 instructions: 100000000 cycles: 196990387 cumulative IPC: 0.507639 (Simulation time: 0 hr 26 min 36 sec) 

ChampSim completed all CPUs

Region of Interest Statistics

CPU 0 cumulative IPC: 0.507639 instructions: 100000000 cycles: 196990387
cpu0_DTLB TOTAL     ACCESS:   25858495  HIT:   25792743  MISS:      65752
cpu0_DTLB LOAD      ACCESS:   21193246  HIT:   21141541  MISS:      51705
cpu0_DTLB RFO       ACCESS:    4665249  HIT:    4651202  MISS:      14047
cpu0_DTLB PREFETCH  ACCESS:          0  HIT:          0  MISS:          0
cpu0_DTLB WRITEBACK ACCESS:          0  HIT:          0  MISS:          0
cpu0_DTLB TRANSLATION ACCESS:          0  HIT:          0  MISS:          0
cpu0_DTLB PREFETCH  REQUESTED:          0  ISSUED:          0  USEFUL:          0  USELESS:          0
cpu0_DTLB AVERAGE MISS LATENCY: 79.6812 cycles
cpu0_ITLB TOTAL     ACCESS:    2658829  HIT:    2658811  MISS:         18
cpu0_ITLB LOAD      ACCESS:    2658829  HIT:    2658811  MISS:         18
cpu0_ITLB RFO       ACCESS:          0  HIT:          0  MISS:          0
cpu0_ITLB PREFETCH  ACCESS:          0  HIT:          0  MISS:          0
cpu0_ITLB WRITEBACK ACCESS:          0  HIT:          0  MISS:          0
cpu0_ITLB TRANSLATION ACCESS:          0  HIT:          0  MISS:          0
cpu0_ITLB PREFETCH  REQUESTED:          0  ISSUED:          0  USEFUL:          0  USELESS:          0
cpu0_ITLB AVERAGE MISS LATENCY: 395.611 cycles
cpu0_L1I TOTAL     ACCESS:    1769009  HIT:    1768537  MISS:        472
cpu0_L1I LOAD      ACCESS:    1769009  HIT:    1768537  MISS:        472
cpu0_L1I RFO       ACCESS:          0  HIT:          0  MISS:          0
cpu0_L1I PREFETCH  ACCESS:          0  HIT:          0  MISS:          0
cpu0_L1I WRITEBACK ACCESS:          0  HIT:          0  MISS:          0
cpu0_L1I TRANSLATION ACCESS:          0  HIT:          0  MISS:          0
cpu0_L1I PREFETCH  REQUESTED:          0  ISSUED:          0  USEFUL:          0  USELESS:          0
cpu0_L1I AVERAGE MISS LATENCY: 355.506 cycles
cpu0_STLB TOTAL     ACCESS:      65770  HIT:      34146  MISS:      31624
cpu0_STLB LOAD      ACCESS:      51723  HIT:      28257  MISS:      23466
cpu0_STLB RFO       ACCESS:      14047  HIT:       5889  MISS:       8158
cpu0_STLB PREFETCH  ACCESS:          0  HIT:          0  MISS:          0
cpu0_STLB WRITEBACK ACCESS:          0  HIT:          0  MISS:          0
cpu0_STLB TRANSLATION ACCESS:          0  HIT:          0  MISS:          0
cpu0_STLB PREFETCH  REQUESTED:          0  ISSUED:          0  USEFUL:          0  USELESS:          0
cpu0_STLB AVERAGE MISS LATENCY: 147.166 cycles
cpu0_L1D TOTAL     ACCESS:   24380988  HIT:   20971044  MISS:    3409944
cpu0_L1D LOAD      ACCESS:   16264354  HIT:   13647360  MISS:    2616994
cpu0_L1D RFO       ACCESS:    8087341  HIT:    7298019  MISS:     789322
cpu0_L1D PREFETCH  ACCESS:          0  HIT:          0  MISS:          0
cpu0_L1D WRITEBACK ACCESS:          0  HIT:          0  MISS:          0
cpu0_L1D TRANSLATION ACCESS:      29293  HIT:      25665  MISS:       3628
cpu0_L1D PREFETCH  REQUESTED:          0  ISSUED:          0  USEFUL:          0  USELESS:          0
cpu0_L1D AVERAGE MISS LATENCY: 576.853 cycles
cpu0_L2C TOTAL     ACCESS:    4454654  HIT:    1717859  MISS:    2736795
cpu0_L2C LOAD      ACCESS:    2617422  HIT:     507378  MISS:    2110044
cpu0_L2C RFO       ACCESS:     789248  HIT:     162765  MISS:     626483
cpu0_L2C PREFETCH  ACCESS:          0  HIT:          0  MISS:          0
cpu0_L2C WRITEBACK ACCESS:    1044356  HIT:    1044186  MISS:        170
cpu0_L2C TRANSLATION ACCESS:       3628  HIT:       3530  MISS:         98
cpu0_L2C PREFETCH  REQUESTED:          0  ISSUED:          0  USEFUL:          0  USELESS:          0
cpu0_L2C AVERAGE MISS LATENCY: 705.064 cycles
LLC TOTAL     ACCESS:    3497338  HIT:     357369  MISS:    3139969
LLC LOAD      ACCESS:    2110044  HIT:     261533  MISS:    1848511
LLC RFO       ACCESS:     626483  HIT:      42875  MISS:     583608
LLC PREFETCH  ACCESS:          0  HIT:          0  MISS:          0
LLC WRITEBACK ACCESS:     760713  HIT:      52910  MISS:     707803
LLC TRANSLATION ACCESS:         98  HIT:         51  MISS:         47
LLC PREFETCH  REQUESTED:          0  ISSUED:          0  USEFUL:          0  USELESS:          0
LLC AVERAGE MISS LATENCY: 596.228 cycles
Insertion Distribution: 
	LOAD 47904 0 0 0 0 0 89548 1824037 
	RFO 0 0 0 0 0 0 11308 598702 
	PREF 0 0 0 0 0 0 0 0 
	WRITEBACK 0 0 0 0 0 0 0 727350 
	 0 0 0 0 0 0 29 33 
Total Prefetch Downgrades: 0

DRAM Statistics
 CHANNEL 0
 RQ ROW_BUFFER_HIT:     151053  ROW_BUFFER_MISS:    2280844
 DBUS AVG_CONGESTED_CYCLE:    3.97103
 WQ ROW_BUFFER_HIT:      70794  ROW_BUFFER_MISS:     644720  FULL:       5453


CPU 0 Branch Prediction Accuracy: 96.8713% MPKI: 1.55303 Average ROB Occupancy at Mispredict: 300.964
Branch type MPKI
BRANCH_DIRECT_JUMP: 0.00018
BRANCH_INDIRECT: 0
BRANCH_CONDITIONAL: 1.55065
BRANCH_DIRECT_CALL: 0.00113
BRANCH_INDIRECT_CALL: 0
BRANCH_RETURN: 0.00107

