
*** ChampSim Multicore Out-of-Order Simulator ***

Warmup Instructions: 10000000
Simulation Instructions: 100000000
Number of CPUs: 1
Off-chip DRAM Size: 4 GiB Channels: 1 Width: 64-bit Data Rate: 3200 MT/s

VirtualMemory physical capacity: 8588881920 num_ppages: 2096895
VirtualMemory page size: 4096 log2_page_size: 12

CPU 0 runs /datasets/cs240c-wi22-a00-public/data/Assignment2/GemsFDTD_716B.trace.xz
CPU 0 Bimodal branch predictor
Basic BTB sets: 1024 ways: 8 indirect buffer size: 4096 RAS size: 64
Initialize SRRIP state
Heartbeat CPU 0 instructions: 10000004 cycles: 2536409 heartbeat IPC: 3.94258 cumulative IPC: 3.94258 (Simulation time: 0 hr 0 min 26 sec) 

Warmup complete CPU 0 instructions: 10000004 cycles: 2536409 (Simulation time: 0 hr 0 min 26 sec) 

Heartbeat CPU 0 instructions: 20000003 cycles: 24791173 heartbeat IPC: 0.449342 cumulative IPC: 0.449342 (Simulation time: 0 hr 2 min 34 sec) 
Heartbeat CPU 0 instructions: 30000002 cycles: 38505068 heartbeat IPC: 0.729187 cumulative IPC: 0.55604 (Simulation time: 0 hr 4 min 7 sec) 
Heartbeat CPU 0 instructions: 40000000 cycles: 49896717 heartbeat IPC: 0.877836 cumulative IPC: 0.633442 (Simulation time: 0 hr 5 min 30 sec) 
Heartbeat CPU 0 instructions: 50000002 cycles: 67872504 heartbeat IPC: 0.556304 cumulative IPC: 0.612219 (Simulation time: 0 hr 7 min 21 sec) 
Heartbeat CPU 0 instructions: 60000002 cycles: 83443086 heartbeat IPC: 0.642237 cumulative IPC: 0.617996 (Simulation time: 0 hr 9 min 0 sec) 
Heartbeat CPU 0 instructions: 70000001 cycles: 95713666 heartbeat IPC: 0.814957 cumulative IPC: 0.643934 (Simulation time: 0 hr 10 min 35 sec) 
Heartbeat CPU 0 instructions: 80000003 cycles: 110493310 heartbeat IPC: 0.676606 cumulative IPC: 0.648407 (Simulation time: 0 hr 12 min 15 sec) 
Heartbeat CPU 0 instructions: 90000001 cycles: 128748125 heartbeat IPC: 0.547801 cumulative IPC: 0.633856 (Simulation time: 0 hr 14 min 9 sec) 
Heartbeat CPU 0 instructions: 100000001 cycles: 141649602 heartbeat IPC: 0.775105 cumulative IPC: 0.646955 (Simulation time: 0 hr 15 min 37 sec) 
Heartbeat CPU 0 instructions: 110000004 cycles: 153240985 heartbeat IPC: 0.86271 cumulative IPC: 0.66355 (Simulation time: 0 hr 17 min 2 sec) 
Finished CPU 0 instructions: 100000000 cycles: 150704576 cumulative IPC: 0.66355 (Simulation time: 0 hr 17 min 2 sec) 

ChampSim completed all CPUs

Region of Interest Statistics

CPU 0 cumulative IPC: 0.66355 instructions: 100000000 cycles: 150704576
cpu0_DTLB TOTAL     ACCESS:   29897384  HIT:   26867544  MISS:    3029840
cpu0_DTLB LOAD      ACCESS:   20919930  HIT:   17890983  MISS:    3028947
cpu0_DTLB RFO       ACCESS:    8977454  HIT:    8976561  MISS:        893
cpu0_DTLB PREFETCH  ACCESS:          0  HIT:          0  MISS:          0
cpu0_DTLB WRITEBACK ACCESS:          0  HIT:          0  MISS:          0
cpu0_DTLB TRANSLATION ACCESS:          0  HIT:          0  MISS:          0
cpu0_DTLB PREFETCH  REQUESTED:          0  ISSUED:          0  USEFUL:          0  USELESS:          0
cpu0_DTLB AVERAGE MISS LATENCY: 13.8382 cycles
cpu0_ITLB TOTAL     ACCESS:    1849259  HIT:    1849257  MISS:          2
cpu0_ITLB LOAD      ACCESS:    1849259  HIT:    1849257  MISS:          2
cpu0_ITLB RFO       ACCESS:          0  HIT:          0  MISS:          0
cpu0_ITLB PREFETCH  ACCESS:          0  HIT:          0  MISS:          0
cpu0_ITLB WRITEBACK ACCESS:          0  HIT:          0  MISS:          0
cpu0_ITLB TRANSLATION ACCESS:          0  HIT:          0  MISS:          0
cpu0_ITLB PREFETCH  REQUESTED:          0  ISSUED:          0  USEFUL:          0  USELESS:          0
cpu0_ITLB AVERAGE MISS LATENCY: 463 cycles
cpu0_L1I TOTAL     ACCESS:    7858934  HIT:    7858812  MISS:        122
cpu0_L1I LOAD      ACCESS:    7858934  HIT:    7858812  MISS:        122
cpu0_L1I RFO       ACCESS:          0  HIT:          0  MISS:          0
cpu0_L1I PREFETCH  ACCESS:          0  HIT:          0  MISS:          0
cpu0_L1I WRITEBACK ACCESS:          0  HIT:          0  MISS:          0
cpu0_L1I TRANSLATION ACCESS:          0  HIT:          0  MISS:          0
cpu0_L1I PREFETCH  REQUESTED:          0  ISSUED:          0  USEFUL:          0  USELESS:          0
cpu0_L1I AVERAGE MISS LATENCY: 275.377 cycles
cpu0_STLB TOTAL     ACCESS:    3029843  HIT:    2757393  MISS:     272450
cpu0_STLB LOAD      ACCESS:    3028950  HIT:    2756500  MISS:     272450
cpu0_STLB RFO       ACCESS:        893  HIT:        893  MISS:          0
cpu0_STLB PREFETCH  ACCESS:          0  HIT:          0  MISS:          0
cpu0_STLB WRITEBACK ACCESS:          0  HIT:          0  MISS:          0
cpu0_STLB TRANSLATION ACCESS:          0  HIT:          0  MISS:          0
cpu0_STLB PREFETCH  REQUESTED:          0  ISSUED:          0  USEFUL:          0  USELESS:          0
cpu0_STLB AVERAGE MISS LATENCY: 51.4081 cycles
cpu0_L1D TOTAL     ACCESS:   34792862  HIT:   26550054  MISS:    8242808
cpu0_L1D LOAD      ACCESS:   22659232  HIT:   14440031  MISS:    8219201
cpu0_L1D RFO       ACCESS:   11866487  HIT:   11866481  MISS:          6
cpu0_L1D PREFETCH  ACCESS:          0  HIT:          0  MISS:          0
cpu0_L1D WRITEBACK ACCESS:          0  HIT:          0  MISS:          0
cpu0_L1D TRANSLATION ACCESS:     267143  HIT:     243542  MISS:      23601
cpu0_L1D PREFETCH  REQUESTED:          0  ISSUED:          0  USEFUL:          0  USELESS:          0
cpu0_L1D AVERAGE MISS LATENCY: 68.9616 cycles
cpu0_L2C TOTAL     ACCESS:    9425514  HIT:    7935050  MISS:    1490464
cpu0_L2C LOAD      ACCESS:    8219323  HIT:    6729486  MISS:    1489837
cpu0_L2C RFO       ACCESS:          6  HIT:          6  MISS:          0
cpu0_L2C PREFETCH  ACCESS:          0  HIT:          0  MISS:          0
cpu0_L2C WRITEBACK ACCESS:    1182584  HIT:    1182543  MISS:         41
cpu0_L2C TRANSLATION ACCESS:      23601  HIT:      23015  MISS:        586
cpu0_L2C PREFETCH  REQUESTED:          0  ISSUED:          0  USEFUL:          0  USELESS:          0
cpu0_L2C AVERAGE MISS LATENCY: 318.656 cycles
LLC TOTAL     ACCESS:    1524354  HIT:      96648  MISS:    1427706
LLC LOAD      ACCESS:    1489742  HIT:      62896  MISS:    1426846
LLC RFO       ACCESS:          0  HIT:          0  MISS:          0
LLC PREFETCH  ACCESS:          0  HIT:          0  MISS:          0
LLC WRITEBACK ACCESS:      34026  HIT:      33348  MISS:        678
LLC TRANSLATION ACCESS:        586  HIT:        404  MISS:        182
LLC PREFETCH  REQUESTED:          0  ISSUED:          0  USEFUL:          0  USELESS:          0
LLC AVERAGE MISS LATENCY: 310.742 cycles
Insertion Distribution: 
	LOAD 1555 0 261256 1234181 
	RFO 0 0 14461 0 
	PREF 0 0 0 0 
	WRITEBACK 0 0 0 821 
	 3 0 74 140 
Total Prefetch Downgrades: 0

DRAM Statistics
 CHANNEL 0
 RQ ROW_BUFFER_HIT:         63  ROW_BUFFER_MISS:    1426950
 DBUS AVG_CONGESTED_CYCLE:    3.94864
 WQ ROW_BUFFER_HIT:        765  ROW_BUFFER_MISS:      10155  FULL:          0


CPU 0 Branch Prediction Accuracy: 98.9038% MPKI: 0.06477 Average ROB Occupancy at Mispredict: 248.592
Branch type MPKI
BRANCH_DIRECT_JUMP: 0
BRANCH_INDIRECT: 0
BRANCH_CONDITIONAL: 0.06477
BRANCH_DIRECT_CALL: 0
BRANCH_INDIRECT_CALL: 0
BRANCH_RETURN: 0

