
*** ChampSim Multicore Out-of-Order Simulator ***

Warmup Instructions: 10000000
Simulation Instructions: 100000000
Number of CPUs: 1
Off-chip DRAM Size: 4 GiB Channels: 1 Width: 64-bit Data Rate: 3200 MT/s

VirtualMemory physical capacity: 8588881920 num_ppages: 2096895
VirtualMemory page size: 4096 log2_page_size: 12

CPU 0 runs /datasets/cs240c-wi22-a00-public/data/Assignment2/lbm_564B.trace.xz
CPU 0 Bimodal branch predictor
Basic BTB sets: 1024 ways: 8 indirect buffer size: 4096 RAS size: 64
Initialize SRRIP state
Heartbeat CPU 0 instructions: 10000000 cycles: 2507076 heartbeat IPC: 3.98871 cumulative IPC: 3.98871 (Simulation time: 0 hr 0 min 28 sec) 

Warmup complete CPU 0 instructions: 10000004 cycles: 2507077 (Simulation time: 0 hr 0 min 28 sec) 

Heartbeat CPU 0 instructions: 20000004 cycles: 37842642 heartbeat IPC: 0.283001 cumulative IPC: 0.283001 (Simulation time: 0 hr 3 min 4 sec) 
Heartbeat CPU 0 instructions: 30000000 cycles: 96841476 heartbeat IPC: 0.169495 cumulative IPC: 0.212012 (Simulation time: 0 hr 8 min 13 sec) 
Heartbeat CPU 0 instructions: 40000000 cycles: 130486567 heartbeat IPC: 0.29722 cumulative IPC: 0.234413 (Simulation time: 0 hr 10 min 55 sec) 
Heartbeat CPU 0 instructions: 50000000 cycles: 165556372 heartbeat IPC: 0.285146 cumulative IPC: 0.245325 (Simulation time: 0 hr 13 min 42 sec) 
Heartbeat CPU 0 instructions: 60000001 cycles: 200986981 heartbeat IPC: 0.282242 cumulative IPC: 0.251915 (Simulation time: 0 hr 16 min 32 sec) 
Heartbeat CPU 0 instructions: 70000002 cycles: 236609354 heartbeat IPC: 0.280722 cumulative IPC: 0.256298 (Simulation time: 0 hr 19 min 24 sec) 
Heartbeat CPU 0 instructions: 80000004 cycles: 273889163 heartbeat IPC: 0.268242 cumulative IPC: 0.257939 (Simulation time: 0 hr 22 min 26 sec) 
Heartbeat CPU 0 instructions: 90000003 cycles: 311781386 heartbeat IPC: 0.263906 cumulative IPC: 0.25867 (Simulation time: 0 hr 25 min 29 sec) 
Heartbeat CPU 0 instructions: 100000004 cycles: 349900413 heartbeat IPC: 0.262336 cumulative IPC: 0.259072 (Simulation time: 0 hr 28 min 34 sec) 
Heartbeat CPU 0 instructions: 110000003 cycles: 389274529 heartbeat IPC: 0.253974 cumulative IPC: 0.258553 (Simulation time: 0 hr 31 min 49 sec) 
Finished CPU 0 instructions: 100000004 cycles: 386767453 cumulative IPC: 0.258553 (Simulation time: 0 hr 31 min 49 sec) 

ChampSim completed all CPUs

Region of Interest Statistics

CPU 0 cumulative IPC: 0.258553 instructions: 100000004 cycles: 386767453
cpu0_DTLB TOTAL     ACCESS:   13903856  HIT:   13851082  MISS:      52774
cpu0_DTLB LOAD      ACCESS:    6995538  HIT:    6982339  MISS:      13199
cpu0_DTLB RFO       ACCESS:    6908318  HIT:    6868743  MISS:      39575
cpu0_DTLB PREFETCH  ACCESS:          0  HIT:          0  MISS:          0
cpu0_DTLB WRITEBACK ACCESS:          0  HIT:          0  MISS:          0
cpu0_DTLB TRANSLATION ACCESS:          0  HIT:          0  MISS:          0
cpu0_DTLB PREFETCH  REQUESTED:          0  ISSUED:          0  USEFUL:          0  USELESS:          0
cpu0_DTLB AVERAGE MISS LATENCY: 478.548 cycles
cpu0_ITLB TOTAL     ACCESS:     149996  HIT:     149995  MISS:          1
cpu0_ITLB LOAD      ACCESS:     149996  HIT:     149995  MISS:          1
cpu0_ITLB RFO       ACCESS:          0  HIT:          0  MISS:          0
cpu0_ITLB PREFETCH  ACCESS:          0  HIT:          0  MISS:          0
cpu0_ITLB WRITEBACK ACCESS:          0  HIT:          0  MISS:          0
cpu0_ITLB TRANSLATION ACCESS:          0  HIT:          0  MISS:          0
cpu0_ITLB PREFETCH  REQUESTED:          0  ISSUED:          0  USEFUL:          0  USELESS:          0
cpu0_ITLB AVERAGE MISS LATENCY: 1789 cycles
cpu0_L1I TOTAL     ACCESS:         12  HIT:          6  MISS:          6
cpu0_L1I LOAD      ACCESS:         12  HIT:          6  MISS:          6
cpu0_L1I RFO       ACCESS:          0  HIT:          0  MISS:          0
cpu0_L1I PREFETCH  ACCESS:          0  HIT:          0  MISS:          0
cpu0_L1I WRITEBACK ACCESS:          0  HIT:          0  MISS:          0
cpu0_L1I TRANSLATION ACCESS:          0  HIT:          0  MISS:          0
cpu0_L1I PREFETCH  REQUESTED:          0  ISSUED:          0  USEFUL:          0  USELESS:          0
cpu0_L1I AVERAGE MISS LATENCY: 427.167 cycles
cpu0_STLB TOTAL     ACCESS:      52775  HIT:          5  MISS:      52770
cpu0_STLB LOAD      ACCESS:      13200  HIT:          0  MISS:      13200
cpu0_STLB RFO       ACCESS:      39575  HIT:          5  MISS:      39570
cpu0_STLB PREFETCH  ACCESS:          0  HIT:          0  MISS:          0
cpu0_STLB WRITEBACK ACCESS:          0  HIT:          0  MISS:          0
cpu0_STLB TRANSLATION ACCESS:          0  HIT:          0  MISS:          0
cpu0_STLB PREFETCH  REQUESTED:          0  ISSUED:          0  USEFUL:          0  USELESS:          0
cpu0_STLB AVERAGE MISS LATENCY: 469.617 cycles
cpu0_L1D TOTAL     ACCESS:   15376490  HIT:    9810306  MISS:    5566184
cpu0_L1D LOAD      ACCESS:    4365984  HIT:    3522407  MISS:     843577
cpu0_L1D RFO       ACCESS:   10957750  HIT:    6235194  MISS:    4722556
cpu0_L1D PREFETCH  ACCESS:          0  HIT:          0  MISS:          0
cpu0_L1D WRITEBACK ACCESS:          0  HIT:          0  MISS:          0
cpu0_L1D TRANSLATION ACCESS:      52756  HIT:      52705  MISS:         51
cpu0_L1D PREFETCH  REQUESTED:          0  ISSUED:          0  USEFUL:          0  USELESS:          0
cpu0_L1D AVERAGE MISS LATENCY: 550.032 cycles
cpu0_L2C TOTAL     ACCESS:   10288744  HIT:    6913163  MISS:    3375581
cpu0_L2C LOAD      ACCESS:     843583  HIT:        210  MISS:     843373
cpu0_L2C RFO       ACCESS:    4722555  HIT:    2190521  MISS:    2532034
cpu0_L2C PREFETCH  ACCESS:          0  HIT:          0  MISS:          0
cpu0_L2C WRITEBACK ACCESS:    4722555  HIT:    4722432  MISS:        123
cpu0_L2C TRANSLATION ACCESS:         51  HIT:          0  MISS:         51
cpu0_L2C PREFETCH  REQUESTED:          0  ISSUED:          0  USEFUL:          0  USELESS:          0
cpu0_L2C AVERAGE MISS LATENCY: 887.55 cycles
LLC TOTAL     ACCESS:    5907533  HIT:    1215284  MISS:    4692249
LLC LOAD      ACCESS:     843373  HIT:        106  MISS:     843267
LLC RFO       ACCESS:    2532034  HIT:     261829  MISS:    2270205
LLC PREFETCH  ACCESS:          0  HIT:          0  MISS:          0
LLC WRITEBACK ACCESS:    2532075  HIT:     953325  MISS:    1578750
LLC TRANSLATION ACCESS:         51  HIT:         24  MISS:         27
LLC PREFETCH  REQUESTED:          0  ISSUED:          0  USEFUL:          0  USELESS:          0
LLC AVERAGE MISS LATENCY: 623.392 cycles
Insertion Distribution: 
	LOAD 0 0 9060 908243 
	RFO 42883 0 714104 1710596 
	PREF 0 0 0 0 
	WRITEBACK 0 0 0 1702720 
	 1 0 32 8 
Total Prefetch Downgrades: 0

DRAM Statistics
 CHANNEL 0
 RQ ROW_BUFFER_HIT:      59185  ROW_BUFFER_MISS:    3053781
 DBUS AVG_CONGESTED_CYCLE:    3.99808
 WQ ROW_BUFFER_HIT:      24534  ROW_BUFFER_MISS:    2247790  FULL:          0


CPU 0 Branch Prediction Accuracy: 99.0902% MPKI: 0.11542 Average ROB Occupancy at Mispredict: 182.248
Branch type MPKI
BRANCH_DIRECT_JUMP: 2e-05
BRANCH_INDIRECT: 0
BRANCH_CONDITIONAL: 0.11536
BRANCH_DIRECT_CALL: 2e-05
BRANCH_INDIRECT_CALL: 0
BRANCH_RETURN: 2e-05

