
*** ChampSim Multicore Out-of-Order Simulator ***

Warmup Instructions: 10000000
Simulation Instructions: 100000000
Number of CPUs: 1
Off-chip DRAM Size: 4 GiB Channels: 1 Width: 64-bit Data Rate: 3200 MT/s

VirtualMemory physical capacity: 8588881920 num_ppages: 2096895
VirtualMemory page size: 4096 log2_page_size: 12

CPU 0 runs /datasets/cs240c-wi22-a00-public/data/Assignment2/omnetpp_340B.trace.xz
CPU 0 Bimodal branch predictor
Basic BTB sets: 1024 ways: 8 indirect buffer size: 4096 RAS size: 64
Initialize SRRIP state
Heartbeat CPU 0 instructions: 10000002 cycles: 2500207 heartbeat IPC: 3.99967 cumulative IPC: 3.99967 (Simulation time: 0 hr 0 min 37 sec) 

Warmup complete CPU 0 instructions: 10000002 cycles: 2500207 (Simulation time: 0 hr 0 min 37 sec) 

Heartbeat CPU 0 instructions: 20000000 cycles: 27068159 heartbeat IPC: 0.407034 cumulative IPC: 0.407034 (Simulation time: 0 hr 1 min 55 sec) 
Heartbeat CPU 0 instructions: 30000002 cycles: 51912517 heartbeat IPC: 0.402506 cumulative IPC: 0.404757 (Simulation time: 0 hr 3 min 13 sec) 
Heartbeat CPU 0 instructions: 40000000 cycles: 76381006 heartbeat IPC: 0.408689 cumulative IPC: 0.406059 (Simulation time: 0 hr 4 min 34 sec) 
Heartbeat CPU 0 instructions: 50000002 cycles: 101815965 heartbeat IPC: 0.39316 cumulative IPC: 0.402756 (Simulation time: 0 hr 5 min 53 sec) 
Heartbeat CPU 0 instructions: 60000001 cycles: 128110930 heartbeat IPC: 0.380301 cumulative IPC: 0.398055 (Simulation time: 0 hr 7 min 18 sec) 
Heartbeat CPU 0 instructions: 70000003 cycles: 154076268 heartbeat IPC: 0.385129 cumulative IPC: 0.395841 (Simulation time: 0 hr 8 min 37 sec) 
Heartbeat CPU 0 instructions: 80000003 cycles: 180313188 heartbeat IPC: 0.381142 cumulative IPC: 0.393672 (Simulation time: 0 hr 10 min 3 sec) 
Heartbeat CPU 0 instructions: 90000000 cycles: 206661255 heartbeat IPC: 0.379534 cumulative IPC: 0.391848 (Simulation time: 0 hr 11 min 22 sec) 
Heartbeat CPU 0 instructions: 100000002 cycles: 232544302 heartbeat IPC: 0.386353 cumulative IPC: 0.391229 (Simulation time: 0 hr 12 min 48 sec) 
Heartbeat CPU 0 instructions: 110000000 cycles: 257388580 heartbeat IPC: 0.402507 cumulative IPC: 0.392329 (Simulation time: 0 hr 14 min 10 sec) 
Finished CPU 0 instructions: 100000000 cycles: 254888375 cumulative IPC: 0.392329 (Simulation time: 0 hr 14 min 10 sec) 

ChampSim completed all CPUs

Region of Interest Statistics

CPU 0 cumulative IPC: 0.392329 instructions: 100000000 cycles: 254888375
cpu0_DTLB TOTAL     ACCESS:   23838574  HIT:   21941369  MISS:    1897205
cpu0_DTLB LOAD      ACCESS:   13865338  HIT:   12284094  MISS:    1581244
cpu0_DTLB RFO       ACCESS:    9973236  HIT:    9657275  MISS:     315961
cpu0_DTLB PREFETCH  ACCESS:          0  HIT:          0  MISS:          0
cpu0_DTLB WRITEBACK ACCESS:          0  HIT:          0  MISS:          0
cpu0_DTLB TRANSLATION ACCESS:          0  HIT:          0  MISS:          0
cpu0_DTLB PREFETCH  REQUESTED:          0  ISSUED:          0  USEFUL:          0  USELESS:          0
cpu0_DTLB AVERAGE MISS LATENCY: 13.1245 cycles
cpu0_ITLB TOTAL     ACCESS:   11128507  HIT:   11093140  MISS:      35367
cpu0_ITLB LOAD      ACCESS:   11128507  HIT:   11093140  MISS:      35367
cpu0_ITLB RFO       ACCESS:          0  HIT:          0  MISS:          0
cpu0_ITLB PREFETCH  ACCESS:          0  HIT:          0  MISS:          0
cpu0_ITLB WRITEBACK ACCESS:          0  HIT:          0  MISS:          0
cpu0_ITLB TRANSLATION ACCESS:          0  HIT:          0  MISS:          0
cpu0_ITLB PREFETCH  REQUESTED:          0  ISSUED:          0  USEFUL:          0  USELESS:          0
cpu0_ITLB AVERAGE MISS LATENCY: 9.25733 cycles
cpu0_L1I TOTAL     ACCESS:    8347331  HIT:    8340982  MISS:       6349
cpu0_L1I LOAD      ACCESS:    8347331  HIT:    8340982  MISS:       6349
cpu0_L1I RFO       ACCESS:          0  HIT:          0  MISS:          0
cpu0_L1I PREFETCH  ACCESS:          0  HIT:          0  MISS:          0
cpu0_L1I WRITEBACK ACCESS:          0  HIT:          0  MISS:          0
cpu0_L1I TRANSLATION ACCESS:          0  HIT:          0  MISS:          0
cpu0_L1I PREFETCH  REQUESTED:          0  ISSUED:          0  USEFUL:          0  USELESS:          0
cpu0_L1I AVERAGE MISS LATENCY: 54.5374 cycles
cpu0_STLB TOTAL     ACCESS:    1932572  HIT:    1457382  MISS:     475190
cpu0_STLB LOAD      ACCESS:    1616611  HIT:    1262706  MISS:     353905
cpu0_STLB RFO       ACCESS:     315961  HIT:     194676  MISS:     121285
cpu0_STLB PREFETCH  ACCESS:          0  HIT:          0  MISS:          0
cpu0_STLB WRITEBACK ACCESS:          0  HIT:          0  MISS:          0
cpu0_STLB TRANSLATION ACCESS:          0  HIT:          0  MISS:          0
cpu0_STLB PREFETCH  REQUESTED:          0  ISSUED:          0  USEFUL:          0  USELESS:          0
cpu0_STLB AVERAGE MISS LATENCY: 16.0157 cycles
cpu0_L1D TOTAL     ACCESS:   31369475  HIT:   28871570  MISS:    2497905
cpu0_L1D LOAD      ACCESS:   15700604  HIT:   13517699  MISS:    2182905
cpu0_L1D RFO       ACCESS:   15228462  HIT:   14917965  MISS:     310497
cpu0_L1D PREFETCH  ACCESS:          0  HIT:          0  MISS:          0
cpu0_L1D WRITEBACK ACCESS:          0  HIT:          0  MISS:          0
cpu0_L1D TRANSLATION ACCESS:     440409  HIT:     435906  MISS:       4503
cpu0_L1D PREFETCH  REQUESTED:          0  ISSUED:          0  USEFUL:          0  USELESS:          0
cpu0_L1D AVERAGE MISS LATENCY: 143.868 cycles
cpu0_L2C TOTAL     ACCESS:    3581338  HIT:    1431350  MISS:    2149988
cpu0_L2C LOAD      ACCESS:    2189216  HIT:     330926  MISS:    1858290
cpu0_L2C RFO       ACCESS:     310497  HIT:      22168  MISS:     288329
cpu0_L2C PREFETCH  ACCESS:          0  HIT:          0  MISS:          0
cpu0_L2C WRITEBACK ACCESS:    1077122  HIT:    1074850  MISS:       2272
cpu0_L2C TRANSLATION ACCESS:       4503  HIT:       3406  MISS:       1097
cpu0_L2C PREFETCH  REQUESTED:          0  ISSUED:          0  USEFUL:          0  USELESS:          0
cpu0_L2C AVERAGE MISS LATENCY: 154.34 cycles
LLC TOTAL     ACCESS:    3079037  HIT:    1061287  MISS:    2017750
LLC LOAD      ACCESS:    1858289  HIT:     435281  MISS:    1423008
LLC RFO       ACCESS:     288329  HIT:      63475  MISS:     224854
LLC PREFETCH  ACCESS:          0  HIT:          0  MISS:          0
LLC WRITEBACK ACCESS:     931322  HIT:     561495  MISS:     369827
LLC TRANSLATION ACCESS:       1097  HIT:       1036  MISS:         61
LLC PREFETCH  REQUESTED:          0  ISSUED:          0  USEFUL:          0  USELESS:          0
LLC AVERAGE MISS LATENCY: 142.102 cycles
Insertion Distribution: 
	LOAD 0 0 372125 1204575 
	RFO 0 0 152626 94564 
	PREF 0 0 0 0 
	WRITEBACK 0 0 0 400146 
	 0 0 42 44 
Total Prefetch Downgrades: 0

DRAM Statistics
 CHANNEL 0
 RQ ROW_BUFFER_HIT:      93227  ROW_BUFFER_MISS:    1554578
 DBUS AVG_CONGESTED_CYCLE:    3.91701
 WQ ROW_BUFFER_HIT:     166382  ROW_BUFFER_MISS:     509128  FULL:          0


CPU 0 Branch Prediction Accuracy: 94.4212% MPKI: 13.4017 Average ROB Occupancy at Mispredict: 52.9037
Branch type MPKI
BRANCH_DIRECT_JUMP: 0.00017
BRANCH_INDIRECT: 0.04543
BRANCH_CONDITIONAL: 13.2857
BRANCH_DIRECT_CALL: 8e-05
BRANCH_INDIRECT_CALL: 0.04734
BRANCH_RETURN: 0.02301

