
*** ChampSim Multicore Out-of-Order Simulator ***

Warmup Instructions: 10000000
Simulation Instructions: 100000000
Number of CPUs: 1
Off-chip DRAM Size: 4 GiB Channels: 1 Width: 64-bit Data Rate: 3200 MT/s

VirtualMemory physical capacity: 8588881920 num_ppages: 2096895
VirtualMemory page size: 4096 log2_page_size: 12

CPU 0 runs /datasets/cs240c-wi22-a00-public/data/Assignment2/astar_163B.trace.xz
CPU 0 Bimodal branch predictor
Basic BTB sets: 1024 ways: 8 indirect buffer size: 4096 RAS size: 64
Initialize SRRIP state
Heartbeat CPU 0 instructions: 10000003 cycles: 2500067 heartbeat IPC: 3.99989 cumulative IPC: 3.99989 (Simulation time: 0 hr 0 min 27 sec) 

Warmup complete CPU 0 instructions: 10000003 cycles: 2500067 (Simulation time: 0 hr 0 min 27 sec) 

Heartbeat CPU 0 instructions: 20000001 cycles: 19912133 heartbeat IPC: 0.574314 cumulative IPC: 0.574314 (Simulation time: 0 hr 1 min 7 sec) 
Heartbeat CPU 0 instructions: 30000002 cycles: 35811852 heartbeat IPC: 0.628942 cumulative IPC: 0.600388 (Simulation time: 0 hr 1 min 44 sec) 
Heartbeat CPU 0 instructions: 40000000 cycles: 50534703 heartbeat IPC: 0.679216 cumulative IPC: 0.624549 (Simulation time: 0 hr 2 min 17 sec) 
Heartbeat CPU 0 instructions: 50000001 cycles: 65566868 heartbeat IPC: 0.66524 cumulative IPC: 0.634248 (Simulation time: 0 hr 2 min 52 sec) 
Heartbeat CPU 0 instructions: 60000003 cycles: 80348256 heartbeat IPC: 0.676527 cumulative IPC: 0.642276 (Simulation time: 0 hr 3 min 26 sec) 
Heartbeat CPU 0 instructions: 70000002 cycles: 95233799 heartbeat IPC: 0.671793 cumulative IPC: 0.647014 (Simulation time: 0 hr 4 min 0 sec) 
Heartbeat CPU 0 instructions: 80000000 cycles: 110440212 heartbeat IPC: 0.657617 cumulative IPC: 0.648508 (Simulation time: 0 hr 4 min 35 sec) 
Heartbeat CPU 0 instructions: 90000001 cycles: 125375491 heartbeat IPC: 0.669556 cumulative IPC: 0.651066 (Simulation time: 0 hr 5 min 12 sec) 
Heartbeat CPU 0 instructions: 100000003 cycles: 140387203 heartbeat IPC: 0.666147 cumulative IPC: 0.652708 (Simulation time: 0 hr 5 min 46 sec) 
Heartbeat CPU 0 instructions: 110000000 cycles: 155518092 heartbeat IPC: 0.6609 cumulative IPC: 0.653518 (Simulation time: 0 hr 6 min 21 sec) 
Finished CPU 0 instructions: 100000000 cycles: 153018026 cumulative IPC: 0.653518 (Simulation time: 0 hr 6 min 21 sec) 

ChampSim completed all CPUs

Region of Interest Statistics

CPU 0 cumulative IPC: 0.653518 instructions: 100000000 cycles: 153018026
cpu0_DTLB TOTAL     ACCESS:   21351361  HIT:   21042395  MISS:     308966
cpu0_DTLB LOAD      ACCESS:   16587478  HIT:   16286484  MISS:     300994
cpu0_DTLB RFO       ACCESS:    4763883  HIT:    4755911  MISS:       7972
cpu0_DTLB PREFETCH  ACCESS:          0  HIT:          0  MISS:          0
cpu0_DTLB WRITEBACK ACCESS:          0  HIT:          0  MISS:          0
cpu0_DTLB TRANSLATION ACCESS:          0  HIT:          0  MISS:          0
cpu0_DTLB PREFETCH  REQUESTED:          0  ISSUED:          0  USEFUL:          0  USELESS:          0
cpu0_DTLB AVERAGE MISS LATENCY: 10.2726 cycles
cpu0_ITLB TOTAL     ACCESS:   11988925  HIT:   11988918  MISS:          7
cpu0_ITLB LOAD      ACCESS:   11988925  HIT:   11988918  MISS:          7
cpu0_ITLB RFO       ACCESS:          0  HIT:          0  MISS:          0
cpu0_ITLB PREFETCH  ACCESS:          0  HIT:          0  MISS:          0
cpu0_ITLB WRITEBACK ACCESS:          0  HIT:          0  MISS:          0
cpu0_ITLB TRANSLATION ACCESS:          0  HIT:          0  MISS:          0
cpu0_ITLB PREFETCH  REQUESTED:          0  ISSUED:          0  USEFUL:          0  USELESS:          0
cpu0_ITLB AVERAGE MISS LATENCY: 221.571 cycles
cpu0_L1I TOTAL     ACCESS:      30479  HIT:      30393  MISS:         86
cpu0_L1I LOAD      ACCESS:      30479  HIT:      30393  MISS:         86
cpu0_L1I RFO       ACCESS:          0  HIT:          0  MISS:          0
cpu0_L1I PREFETCH  ACCESS:          0  HIT:          0  MISS:          0
cpu0_L1I WRITEBACK ACCESS:          0  HIT:          0  MISS:          0
cpu0_L1I TRANSLATION ACCESS:          0  HIT:          0  MISS:          0
cpu0_L1I PREFETCH  REQUESTED:          0  ISSUED:          0  USEFUL:          0  USELESS:          0
cpu0_L1I AVERAGE MISS LATENCY: 255.279 cycles
cpu0_STLB TOTAL     ACCESS:     308973  HIT:     291503  MISS:      17470
cpu0_STLB LOAD      ACCESS:     301001  HIT:     285663  MISS:      15338
cpu0_STLB RFO       ACCESS:       7972  HIT:       5840  MISS:       2132
cpu0_STLB PREFETCH  ACCESS:          0  HIT:          0  MISS:          0
cpu0_STLB WRITEBACK ACCESS:          0  HIT:          0  MISS:          0
cpu0_STLB TRANSLATION ACCESS:          0  HIT:          0  MISS:          0
cpu0_STLB PREFETCH  REQUESTED:          0  ISSUED:          0  USEFUL:          0  USELESS:          0
cpu0_STLB AVERAGE MISS LATENCY: 22.4608 cycles
cpu0_L1D TOTAL     ACCESS:   27146021  HIT:   26731622  MISS:     414399
cpu0_L1D LOAD      ACCESS:   16912498  HIT:   16579159  MISS:     333339
cpu0_L1D RFO       ACCESS:   10216109  HIT:   10135310  MISS:      80799
cpu0_L1D PREFETCH  ACCESS:          0  HIT:          0  MISS:          0
cpu0_L1D WRITEBACK ACCESS:          0  HIT:          0  MISS:          0
cpu0_L1D TRANSLATION ACCESS:      17414  HIT:      17153  MISS:        261
cpu0_L1D PREFETCH  REQUESTED:          0  ISSUED:          0  USEFUL:          0  USELESS:          0
cpu0_L1D AVERAGE MISS LATENCY: 64.5243 cycles
cpu0_L2C TOTAL     ACCESS:     633353  HIT:     441395  MISS:     191958
cpu0_L2C LOAD      ACCESS:     333360  HIT:     209320  MISS:     124040
cpu0_L2C RFO       ACCESS:      80799  HIT:      12919  MISS:      67880
cpu0_L2C PREFETCH  ACCESS:          0  HIT:          0  MISS:          0
cpu0_L2C WRITEBACK ACCESS:     218933  HIT:     218929  MISS:          4
cpu0_L2C TRANSLATION ACCESS:        261  HIT:        227  MISS:         34
cpu0_L2C PREFETCH  REQUESTED:          0  ISSUED:          0  USEFUL:          0  USELESS:          0
cpu0_L2C AVERAGE MISS LATENCY: 115.66 cycles
LLC TOTAL     ACCESS:     335201  HIT:     170990  MISS:     164211
LLC LOAD      ACCESS:     124039  HIT:      33808  MISS:      90231
LLC RFO       ACCESS:      67880  HIT:      41520  MISS:      26360
LLC PREFETCH  ACCESS:          0  HIT:          0  MISS:          0
LLC WRITEBACK ACCESS:     143248  HIT:      95630  MISS:      47618
LLC TRANSLATION ACCESS:         34  HIT:         32  MISS:          2
LLC PREFETCH  REQUESTED:          0  ISSUED:          0  USEFUL:          0  USELESS:          0
LLC AVERAGE MISS LATENCY: 110.656 cycles
Insertion Distribution: 
	LOAD 212 0 31329 81355 
	RFO 2587 0 22681 4961 
	PREF 0 0 0 0 
	WRITEBACK 0 0 0 47655 
	 0 0 12 0 
Total Prefetch Downgrades: 0

DRAM Statistics
 CHANNEL 0
 RQ ROW_BUFFER_HIT:      10262  ROW_BUFFER_MISS:     106329
 DBUS AVG_CONGESTED_CYCLE:    3.81852
 WQ ROW_BUFFER_HIT:       6521  ROW_BUFFER_MISS:      61653  FULL:          0


CPU 0 Branch Prediction Accuracy: 70.0225% MPKI: 43.9041 Average ROB Occupancy at Mispredict: 12.7188
Branch type MPKI
BRANCH_DIRECT_JUMP: 0.00019
BRANCH_INDIRECT: 0
BRANCH_CONDITIONAL: 43.9037
BRANCH_DIRECT_CALL: 0.00012
BRANCH_INDIRECT_CALL: 0
BRANCH_RETURN: 0.00012

