
*** ChampSim Multicore Out-of-Order Simulator ***

Warmup Instructions: 10000000
Simulation Instructions: 100000000
Number of CPUs: 1
Off-chip DRAM Size: 4 GiB Channels: 1 Width: 64-bit Data Rate: 3200 MT/s

VirtualMemory physical capacity: 8588881920 num_ppages: 2096895
VirtualMemory page size: 4096 log2_page_size: 12

CPU 0 runs /datasets/cs240c-wi22-a00-public/data/Assignment2/milc_744B.trace.xz
CPU 0 Bimodal branch predictor
Basic BTB sets: 1024 ways: 8 indirect buffer size: 4096 RAS size: 64
Initialize SRRIP state
Heartbeat CPU 0 instructions: 10000000 cycles: 2597395 heartbeat IPC: 3.85001 cumulative IPC: 3.85001 (Simulation time: 0 hr 0 min 36 sec) 

Warmup complete CPU 0 instructions: 10000005 cycles: 2597401 (Simulation time: 0 hr 0 min 36 sec) 

Heartbeat CPU 0 instructions: 20000003 cycles: 16276548 heartbeat IPC: 0.73104 cumulative IPC: 0.73104 (Simulation time: 0 hr 1 min 44 sec) 
Heartbeat CPU 0 instructions: 30000000 cycles: 29982538 heartbeat IPC: 0.729608 cumulative IPC: 0.730323 (Simulation time: 0 hr 2 min 52 sec) 
Heartbeat CPU 0 instructions: 40000001 cycles: 43730693 heartbeat IPC: 0.72737 cumulative IPC: 0.729336 (Simulation time: 0 hr 4 min 4 sec) 
Heartbeat CPU 0 instructions: 50000000 cycles: 57462732 heartbeat IPC: 0.728224 cumulative IPC: 0.729058 (Simulation time: 0 hr 5 min 16 sec) 
Heartbeat CPU 0 instructions: 60000000 cycles: 71194737 heartbeat IPC: 0.728226 cumulative IPC: 0.728891 (Simulation time: 0 hr 6 min 29 sec) 
Heartbeat CPU 0 instructions: 70000002 cycles: 84925368 heartbeat IPC: 0.728299 cumulative IPC: 0.728792 (Simulation time: 0 hr 7 min 41 sec) 
Heartbeat CPU 0 instructions: 80000003 cycles: 98653720 heartbeat IPC: 0.72842 cumulative IPC: 0.728739 (Simulation time: 0 hr 8 min 53 sec) 
Heartbeat CPU 0 instructions: 90000002 cycles: 112339928 heartbeat IPC: 0.730663 cumulative IPC: 0.728979 (Simulation time: 0 hr 10 min 5 sec) 
Heartbeat CPU 0 instructions: 100000001 cycles: 146569439 heartbeat IPC: 0.292146 cumulative IPC: 0.625121 (Simulation time: 0 hr 16 min 25 sec) 
Heartbeat CPU 0 instructions: 110000004 cycles: 156769382 heartbeat IPC: 0.980398 cumulative IPC: 0.648626 (Simulation time: 0 hr 17 min 29 sec) 
Finished CPU 0 instructions: 100000004 cycles: 154171982 cumulative IPC: 0.648626 (Simulation time: 0 hr 17 min 29 sec) 

ChampSim completed all CPUs

Region of Interest Statistics

CPU 0 cumulative IPC: 0.648626 instructions: 100000004 cycles: 154171982
cpu0_DTLB TOTAL     ACCESS:   13558355  HIT:   13423571  MISS:     134784
cpu0_DTLB LOAD      ACCESS:   10515118  HIT:   10386961  MISS:     128157
cpu0_DTLB RFO       ACCESS:    3043237  HIT:    3036610  MISS:       6627
cpu0_DTLB PREFETCH  ACCESS:          0  HIT:          0  MISS:          0
cpu0_DTLB WRITEBACK ACCESS:          0  HIT:          0  MISS:          0
cpu0_DTLB TRANSLATION ACCESS:          0  HIT:          0  MISS:          0
cpu0_DTLB PREFETCH  REQUESTED:          0  ISSUED:          0  USEFUL:          0  USELESS:          0
cpu0_DTLB AVERAGE MISS LATENCY: 147.415 cycles
cpu0_ITLB TOTAL     ACCESS:    8135558  HIT:    8135553  MISS:          5
cpu0_ITLB LOAD      ACCESS:    8135558  HIT:    8135553  MISS:          5
cpu0_ITLB RFO       ACCESS:          0  HIT:          0  MISS:          0
cpu0_ITLB PREFETCH  ACCESS:          0  HIT:          0  MISS:          0
cpu0_ITLB WRITEBACK ACCESS:          0  HIT:          0  MISS:          0
cpu0_ITLB TRANSLATION ACCESS:          0  HIT:          0  MISS:          0
cpu0_ITLB PREFETCH  REQUESTED:          0  ISSUED:          0  USEFUL:          0  USELESS:          0
cpu0_ITLB AVERAGE MISS LATENCY: 219.2 cycles
cpu0_L1I TOTAL     ACCESS:     365359  HIT:     365312  MISS:         47
cpu0_L1I LOAD      ACCESS:     365359  HIT:     365312  MISS:         47
cpu0_L1I RFO       ACCESS:          0  HIT:          0  MISS:          0
cpu0_L1I PREFETCH  ACCESS:          0  HIT:          0  MISS:          0
cpu0_L1I WRITEBACK ACCESS:          0  HIT:          0  MISS:          0
cpu0_L1I TRANSLATION ACCESS:          0  HIT:          0  MISS:          0
cpu0_L1I PREFETCH  REQUESTED:          0  ISSUED:          0  USEFUL:          0  USELESS:          0
cpu0_L1I AVERAGE MISS LATENCY: 383.617 cycles
cpu0_STLB TOTAL     ACCESS:     134789  HIT:       2588  MISS:     132201
cpu0_STLB LOAD      ACCESS:     128162  HIT:       2578  MISS:     125584
cpu0_STLB RFO       ACCESS:       6627  HIT:         10  MISS:       6617
cpu0_STLB PREFETCH  ACCESS:          0  HIT:          0  MISS:          0
cpu0_STLB WRITEBACK ACCESS:          0  HIT:          0  MISS:          0
cpu0_STLB TRANSLATION ACCESS:          0  HIT:          0  MISS:          0
cpu0_STLB PREFETCH  REQUESTED:          0  ISSUED:          0  USEFUL:          0  USELESS:          0
cpu0_STLB AVERAGE MISS LATENCY: 141.117 cycles
cpu0_L1D TOTAL     ACCESS:   13086259  HIT:   11341322  MISS:    1744937
cpu0_L1D LOAD      ACCESS:    6797292  HIT:    5476039  MISS:    1321253
cpu0_L1D RFO       ACCESS:    6158033  HIT:    5734733  MISS:     423300
cpu0_L1D PREFETCH  ACCESS:          0  HIT:          0  MISS:          0
cpu0_L1D WRITEBACK ACCESS:          0  HIT:          0  MISS:          0
cpu0_L1D TRANSLATION ACCESS:     130934  HIT:     130550  MISS:        384
cpu0_L1D PREFETCH  REQUESTED:          0  ISSUED:          0  USEFUL:          0  USELESS:          0
cpu0_L1D AVERAGE MISS LATENCY: 417.175 cycles
cpu0_L2C TOTAL     ACCESS:    2446394  HIT:     701423  MISS:    1744971
cpu0_L2C LOAD      ACCESS:    1321300  HIT:          0  MISS:    1321300
cpu0_L2C RFO       ACCESS:     423300  HIT:          0  MISS:     423300
cpu0_L2C PREFETCH  ACCESS:          0  HIT:          0  MISS:          0
cpu0_L2C WRITEBACK ACCESS:     701410  HIT:     701404  MISS:          6
cpu0_L2C TRANSLATION ACCESS:        384  HIT:         19  MISS:        365
cpu0_L2C PREFETCH  REQUESTED:          0  ISSUED:          0  USEFUL:          0  USELESS:          0
cpu0_L2C AVERAGE MISS LATENCY: 406.109 cycles
LLC TOTAL     ACCESS:    2446271  HIT:      68760  MISS:    2377511
LLC LOAD      ACCESS:    1321300  HIT:       1457  MISS:    1319843
LLC RFO       ACCESS:     423300  HIT:       5147  MISS:     418153
LLC PREFETCH  ACCESS:          0  HIT:          0  MISS:          0
LLC WRITEBACK ACCESS:     701306  HIT:      61848  MISS:     639458
LLC TRANSLATION ACCESS:        365  HIT:        308  MISS:         57
LLC PREFETCH  REQUESTED:          0  ISSUED:          0  USEFUL:          0  USELESS:          0
LLC AVERAGE MISS LATENCY: 282.65 cycles
Insertion Distribution: 
	LOAD 0 0 208604 1251441 
	RFO 0 0 35746 382409 
	PREF 0 0 0 0 
	WRITEBACK 0 0 0 645133 
	 0 0 26 47 
Total Prefetch Downgrades: 0

DRAM Statistics
 CHANNEL 0
 RQ ROW_BUFFER_HIT:     184037  ROW_BUFFER_MISS:    1553993
 DBUS AVG_CONGESTED_CYCLE:     3.9562
 WQ ROW_BUFFER_HIT:      85456  ROW_BUFFER_MISS:     611314  FULL:          0


CPU 0 Branch Prediction Accuracy: 77.9348% MPKI: 4.47835 Average ROB Occupancy at Mispredict: 303.059
Branch type MPKI
BRANCH_DIRECT_JUMP: 5e-05
BRANCH_INDIRECT: 0
BRANCH_CONDITIONAL: 4.47814
BRANCH_DIRECT_CALL: 8e-05
BRANCH_INDIRECT_CALL: 0
BRANCH_RETURN: 8e-05

