
*** ChampSim Multicore Out-of-Order Simulator ***

Warmup Instructions: 10000000
Simulation Instructions: 100000000
Number of CPUs: 1
Off-chip DRAM Size: 4 GiB Channels: 1 Width: 64-bit Data Rate: 3200 MT/s

VirtualMemory physical capacity: 8588881920 num_ppages: 2096895
VirtualMemory page size: 4096 log2_page_size: 12

CPU 0 runs /datasets/cs240c-wi22-a00-public/data/Assignment2/lbm_564B.trace.xz
CPU 0 Bimodal branch predictor
Basic BTB sets: 1024 ways: 8 indirect buffer size: 4096 RAS size: 64
Initialize SRRIP state
Heartbeat CPU 0 instructions: 10000000 cycles: 2507077 heartbeat IPC: 3.98871 cumulative IPC: 3.98871 (Simulation time: 0 hr 0 min 25 sec) 

Warmup complete CPU 0 instructions: 10000004 cycles: 2507078 (Simulation time: 0 hr 0 min 25 sec) 

Heartbeat CPU 0 instructions: 20000004 cycles: 37915270 heartbeat IPC: 0.282421 cumulative IPC: 0.282421 (Simulation time: 0 hr 2 min 54 sec) 
Heartbeat CPU 0 instructions: 30000000 cycles: 96534118 heartbeat IPC: 0.170594 cumulative IPC: 0.212705 (Simulation time: 0 hr 7 min 39 sec) 
Heartbeat CPU 0 instructions: 40000000 cycles: 130473759 heartbeat IPC: 0.294641 cumulative IPC: 0.234436 (Simulation time: 0 hr 10 min 3 sec) 
Heartbeat CPU 0 instructions: 50000000 cycles: 164369825 heartbeat IPC: 0.295019 cumulative IPC: 0.247123 (Simulation time: 0 hr 12 min 27 sec) 
Heartbeat CPU 0 instructions: 60000001 cycles: 199553104 heartbeat IPC: 0.284226 cumulative IPC: 0.253748 (Simulation time: 0 hr 14 min 55 sec) 
Heartbeat CPU 0 instructions: 70000002 cycles: 234255934 heartbeat IPC: 0.288161 cumulative IPC: 0.258901 (Simulation time: 0 hr 17 min 21 sec) 
Heartbeat CPU 0 instructions: 80000000 cycles: 270457613 heartbeat IPC: 0.27623 cumulative IPC: 0.261242 (Simulation time: 0 hr 19 min 53 sec) 
Heartbeat CPU 0 instructions: 90000003 cycles: 307187916 heartbeat IPC: 0.272255 cumulative IPC: 0.26257 (Simulation time: 0 hr 22 min 28 sec) 
Heartbeat CPU 0 instructions: 100000004 cycles: 344251128 heartbeat IPC: 0.269809 cumulative IPC: 0.263355 (Simulation time: 0 hr 25 min 9 sec) 
Heartbeat CPU 0 instructions: 110000003 cycles: 380901199 heartbeat IPC: 0.272851 cumulative IPC: 0.264275 (Simulation time: 0 hr 27 min 48 sec) 
Finished CPU 0 instructions: 100000004 cycles: 378394122 cumulative IPC: 0.264275 (Simulation time: 0 hr 27 min 48 sec) 

ChampSim completed all CPUs

Region of Interest Statistics

CPU 0 cumulative IPC: 0.264275 instructions: 100000004 cycles: 378394122
cpu0_DTLB TOTAL     ACCESS:   13905252  HIT:   13852478  MISS:      52774
cpu0_DTLB LOAD      ACCESS:    6998708  HIT:    6985509  MISS:      13199
cpu0_DTLB RFO       ACCESS:    6906544  HIT:    6866969  MISS:      39575
cpu0_DTLB PREFETCH  ACCESS:          0  HIT:          0  MISS:          0
cpu0_DTLB WRITEBACK ACCESS:          0  HIT:          0  MISS:          0
cpu0_DTLB TRANSLATION ACCESS:          0  HIT:          0  MISS:          0
cpu0_DTLB PREFETCH  REQUESTED:          0  ISSUED:          0  USEFUL:          0  USELESS:          0
cpu0_DTLB AVERAGE MISS LATENCY: 484.926 cycles
cpu0_ITLB TOTAL     ACCESS:     150260  HIT:     150259  MISS:          1
cpu0_ITLB LOAD      ACCESS:     150260  HIT:     150259  MISS:          1
cpu0_ITLB RFO       ACCESS:          0  HIT:          0  MISS:          0
cpu0_ITLB PREFETCH  ACCESS:          0  HIT:          0  MISS:          0
cpu0_ITLB WRITEBACK ACCESS:          0  HIT:          0  MISS:          0
cpu0_ITLB TRANSLATION ACCESS:          0  HIT:          0  MISS:          0
cpu0_ITLB PREFETCH  REQUESTED:          0  ISSUED:          0  USEFUL:          0  USELESS:          0
cpu0_ITLB AVERAGE MISS LATENCY: 411 cycles
cpu0_L1I TOTAL     ACCESS:         12  HIT:          6  MISS:          6
cpu0_L1I LOAD      ACCESS:         12  HIT:          6  MISS:          6
cpu0_L1I RFO       ACCESS:          0  HIT:          0  MISS:          0
cpu0_L1I PREFETCH  ACCESS:          0  HIT:          0  MISS:          0
cpu0_L1I WRITEBACK ACCESS:          0  HIT:          0  MISS:          0
cpu0_L1I TRANSLATION ACCESS:          0  HIT:          0  MISS:          0
cpu0_L1I PREFETCH  REQUESTED:          0  ISSUED:          0  USEFUL:          0  USELESS:          0
cpu0_L1I AVERAGE MISS LATENCY: 376 cycles
cpu0_STLB TOTAL     ACCESS:      52775  HIT:          5  MISS:      52770
cpu0_STLB LOAD      ACCESS:      13200  HIT:          0  MISS:      13200
cpu0_STLB RFO       ACCESS:      39575  HIT:          5  MISS:      39570
cpu0_STLB PREFETCH  ACCESS:          0  HIT:          0  MISS:          0
cpu0_STLB WRITEBACK ACCESS:          0  HIT:          0  MISS:          0
cpu0_STLB TRANSLATION ACCESS:          0  HIT:          0  MISS:          0
cpu0_STLB PREFETCH  REQUESTED:          0  ISSUED:          0  USEFUL:          0  USELESS:          0
cpu0_STLB AVERAGE MISS LATENCY: 475.97 cycles
cpu0_L1D TOTAL     ACCESS:   15378689  HIT:    9812509  MISS:    5566180
cpu0_L1D LOAD      ACCESS:    4365395  HIT:    3521814  MISS:     843581
cpu0_L1D RFO       ACCESS:   10960538  HIT:    6237990  MISS:    4722548
cpu0_L1D PREFETCH  ACCESS:          0  HIT:          0  MISS:          0
cpu0_L1D WRITEBACK ACCESS:          0  HIT:          0  MISS:          0
cpu0_L1D TRANSLATION ACCESS:      52756  HIT:      52705  MISS:         51
cpu0_L1D PREFETCH  REQUESTED:          0  ISSUED:          0  USEFUL:          0  USELESS:          0
cpu0_L1D AVERAGE MISS LATENCY: 535.885 cycles
cpu0_L2C TOTAL     ACCESS:   10288731  HIT:    6913153  MISS:    3375578
cpu0_L2C LOAD      ACCESS:     843587  HIT:        214  MISS:     843373
cpu0_L2C RFO       ACCESS:    4722547  HIT:    2190514  MISS:    2532033
cpu0_L2C PREFETCH  ACCESS:          0  HIT:          0  MISS:          0
cpu0_L2C WRITEBACK ACCESS:    4722546  HIT:    4722425  MISS:        121
cpu0_L2C TRANSLATION ACCESS:         51  HIT:          0  MISS:         51
cpu0_L2C PREFETCH  REQUESTED:          0  ISSUED:          0  USEFUL:          0  USELESS:          0
cpu0_L2C AVERAGE MISS LATENCY: 864.225 cycles
LLC TOTAL     ACCESS:    5907526  HIT:    1235880  MISS:    4671646
LLC LOAD      ACCESS:     843373  HIT:        103  MISS:     843270
LLC RFO       ACCESS:    2532029  HIT:     294877  MISS:    2237152
LLC PREFETCH  ACCESS:          0  HIT:          0  MISS:          0
LLC WRITEBACK ACCESS:    2532073  HIT:     940881  MISS:    1591192
LLC TRANSLATION ACCESS:         51  HIT:         19  MISS:         32
LLC PREFETCH  REQUESTED:          0  ISSUED:          0  USEFUL:          0  USELESS:          0
LLC AVERAGE MISS LATENCY: 609.287 cycles
Insertion Distribution: 
	LOAD 0 0 16096 901213 
	RFO 84828 0 638457 1711881 
	PREF 0 0 0 0 
	WRITEBACK 0 0 0 1706458 
	 0 0 39 9 
Total Prefetch Downgrades: 0

DRAM Statistics
 CHANNEL 0
 RQ ROW_BUFFER_HIT:      52660  ROW_BUFFER_MISS:    3027353
 DBUS AVG_CONGESTED_CYCLE:    3.99739
 WQ ROW_BUFFER_HIT:      25311  ROW_BUFFER_MISS:    2210116  FULL:          0


CPU 0 Branch Prediction Accuracy: 99.0902% MPKI: 0.11542 Average ROB Occupancy at Mispredict: 181.978
Branch type MPKI
BRANCH_DIRECT_JUMP: 2e-05
BRANCH_INDIRECT: 0
BRANCH_CONDITIONAL: 0.11536
BRANCH_DIRECT_CALL: 2e-05
BRANCH_INDIRECT_CALL: 0
BRANCH_RETURN: 2e-05

