
*** ChampSim Multicore Out-of-Order Simulator ***

Warmup Instructions: 10000000
Simulation Instructions: 100000000
Number of CPUs: 1
Off-chip DRAM Size: 4 GiB Channels: 1 Width: 64-bit Data Rate: 3200 MT/s

VirtualMemory physical capacity: 8588881920 num_ppages: 2096895
VirtualMemory page size: 4096 log2_page_size: 12

CPU 0 runs /datasets/cs240c-wi22-a00-public/data/Assignment2/GemsFDTD_109B.trace.xz
CPU 0 Bimodal branch predictor
Basic BTB sets: 1024 ways: 8 indirect buffer size: 4096 RAS size: 64
Initialize SRRIP state
Heartbeat CPU 0 instructions: 10000004 cycles: 4294006 heartbeat IPC: 2.32883 cumulative IPC: 2.32883 (Simulation time: 0 hr 0 min 59 sec) 

Warmup complete CPU 0 instructions: 10000004 cycles: 4294006 (Simulation time: 0 hr 0 min 59 sec) 

Heartbeat CPU 0 instructions: 20000000 cycles: 34877406 heartbeat IPC: 0.326975 cumulative IPC: 0.326975 (Simulation time: 0 hr 4 min 15 sec) 
Heartbeat CPU 0 instructions: 30000004 cycles: 56914732 heartbeat IPC: 0.453776 cumulative IPC: 0.380078 (Simulation time: 0 hr 6 min 13 sec) 
Heartbeat CPU 0 instructions: 40000004 cycles: 62786368 heartbeat IPC: 1.7031 cumulative IPC: 0.512887 (Simulation time: 0 hr 6 min 59 sec) 
Heartbeat CPU 0 instructions: 50000002 cycles: 83115029 heartbeat IPC: 0.491916 cumulative IPC: 0.507479 (Simulation time: 0 hr 9 min 7 sec) 
Heartbeat CPU 0 instructions: 60000002 cycles: 124938515 heartbeat IPC: 0.2391 cumulative IPC: 0.414441 (Simulation time: 0 hr 13 min 27 sec) 
Heartbeat CPU 0 instructions: 70000001 cycles: 164649936 heartbeat IPC: 0.251817 cumulative IPC: 0.374168 (Simulation time: 0 hr 17 min 23 sec) 
Heartbeat CPU 0 instructions: 80000004 cycles: 204388787 heartbeat IPC: 0.251643 cumulative IPC: 0.349834 (Simulation time: 0 hr 21 min 13 sec) 
Heartbeat CPU 0 instructions: 90000000 cycles: 244022120 heartbeat IPC: 0.252313 cumulative IPC: 0.333711 (Simulation time: 0 hr 25 min 3 sec) 
Heartbeat CPU 0 instructions: 100000002 cycles: 283732437 heartbeat IPC: 0.251824 cumulative IPC: 0.322075 (Simulation time: 0 hr 28 min 52 sec) 
Heartbeat CPU 0 instructions: 110000004 cycles: 323398164 heartbeat IPC: 0.252107 cumulative IPC: 0.313377 (Simulation time: 0 hr 32 min 40 sec) 
Finished CPU 0 instructions: 100000000 cycles: 319104158 cumulative IPC: 0.313377 (Simulation time: 0 hr 32 min 40 sec) 

ChampSim completed all CPUs

Region of Interest Statistics

CPU 0 cumulative IPC: 0.313377 instructions: 100000000 cycles: 319104158
cpu0_DTLB TOTAL     ACCESS:   26452585  HIT:   26253166  MISS:     199419
cpu0_DTLB LOAD      ACCESS:   21024919  HIT:   20827500  MISS:     197419
cpu0_DTLB RFO       ACCESS:    5427666  HIT:    5425666  MISS:       2000
cpu0_DTLB PREFETCH  ACCESS:          0  HIT:          0  MISS:          0
cpu0_DTLB WRITEBACK ACCESS:          0  HIT:          0  MISS:          0
cpu0_DTLB TRANSLATION ACCESS:          0  HIT:          0  MISS:          0
cpu0_DTLB PREFETCH  REQUESTED:          0  ISSUED:          0  USEFUL:          0  USELESS:          0
cpu0_DTLB AVERAGE MISS LATENCY: 443.532 cycles
cpu0_ITLB TOTAL     ACCESS:    2028194  HIT:    2028176  MISS:         18
cpu0_ITLB LOAD      ACCESS:    2028194  HIT:    2028176  MISS:         18
cpu0_ITLB RFO       ACCESS:          0  HIT:          0  MISS:          0
cpu0_ITLB PREFETCH  ACCESS:          0  HIT:          0  MISS:          0
cpu0_ITLB WRITEBACK ACCESS:          0  HIT:          0  MISS:          0
cpu0_ITLB TRANSLATION ACCESS:          0  HIT:          0  MISS:          0
cpu0_ITLB PREFETCH  REQUESTED:          0  ISSUED:          0  USEFUL:          0  USELESS:          0
cpu0_ITLB AVERAGE MISS LATENCY: 240.222 cycles
cpu0_L1I TOTAL     ACCESS:    1722976  HIT:    1722546  MISS:        430
cpu0_L1I LOAD      ACCESS:    1722976  HIT:    1722546  MISS:        430
cpu0_L1I RFO       ACCESS:          0  HIT:          0  MISS:          0
cpu0_L1I PREFETCH  ACCESS:          0  HIT:          0  MISS:          0
cpu0_L1I WRITEBACK ACCESS:          0  HIT:          0  MISS:          0
cpu0_L1I TRANSLATION ACCESS:          0  HIT:          0  MISS:          0
cpu0_L1I PREFETCH  REQUESTED:          0  ISSUED:          0  USEFUL:          0  USELESS:          0
cpu0_L1I AVERAGE MISS LATENCY: 320.395 cycles
cpu0_STLB TOTAL     ACCESS:     199437  HIT:      33976  MISS:     165461
cpu0_STLB LOAD      ACCESS:     197437  HIT:      32670  MISS:     164767
cpu0_STLB RFO       ACCESS:       2000  HIT:       1306  MISS:        694
cpu0_STLB PREFETCH  ACCESS:          0  HIT:          0  MISS:          0
cpu0_STLB WRITEBACK ACCESS:          0  HIT:          0  MISS:          0
cpu0_STLB TRANSLATION ACCESS:          0  HIT:          0  MISS:          0
cpu0_STLB PREFETCH  REQUESTED:          0  ISSUED:          0  USEFUL:          0  USELESS:          0
cpu0_STLB AVERAGE MISS LATENCY: 523.622 cycles
cpu0_L1D TOTAL     ACCESS:   22793644  HIT:   19563421  MISS:    3230223
cpu0_L1D LOAD      ACCESS:   13696820  HIT:   10596894  MISS:    3099926
cpu0_L1D RFO       ACCESS:    9006573  HIT:    8878960  MISS:     127613
cpu0_L1D PREFETCH  ACCESS:          0  HIT:          0  MISS:          0
cpu0_L1D WRITEBACK ACCESS:          0  HIT:          0  MISS:          0
cpu0_L1D TRANSLATION ACCESS:      90251  HIT:      87567  MISS:       2684
cpu0_L1D PREFETCH  REQUESTED:          0  ISSUED:          0  USEFUL:          0  USELESS:          0
cpu0_L1D AVERAGE MISS LATENCY: 737.763 cycles
cpu0_L2C TOTAL     ACCESS:    4595486  HIT:    1423664  MISS:    3171822
cpu0_L2C LOAD      ACCESS:    3100356  HIT:      41298  MISS:    3059058
cpu0_L2C RFO       ACCESS:     127613  HIT:      15144  MISS:     112469
cpu0_L2C PREFETCH  ACCESS:          0  HIT:          0  MISS:          0
cpu0_L2C WRITEBACK ACCESS:    1364833  HIT:    1364735  MISS:         98
cpu0_L2C TRANSLATION ACCESS:       2684  HIT:       2487  MISS:        197
cpu0_L2C PREFETCH  REQUESTED:          0  ISSUED:          0  USEFUL:          0  USELESS:          0
cpu0_L2C AVERAGE MISS LATENCY: 740.171 cycles
LLC TOTAL     ACCESS:    4522971  HIT:     866089  MISS:    3656882
LLC LOAD      ACCESS:    3059054  HIT:     629862  MISS:    2429192
LLC RFO       ACCESS:     112469  HIT:      95190  MISS:      17279
LLC PREFETCH  ACCESS:          0  HIT:          0  MISS:          0
LLC WRITEBACK ACCESS:    1351251  HIT:     140942  MISS:    1210309
LLC TRANSLATION ACCESS:        197  HIT:         95  MISS:        102
LLC PREFETCH  REQUESTED:          0  ISSUED:          0  USEFUL:          0  USELESS:          0
LLC AVERAGE MISS LATENCY: 623.773 cycles
Insertion Distribution: 
	LOAD 578498 0 173367 1904116 
	RFO 4041 0 1011 12229 
	PREF 0 0 0 0 
	WRITEBACK 0 0 0 1323231 
	 12 0 52 57 
Total Prefetch Downgrades: 0

DRAM Statistics
 CHANNEL 0
 RQ ROW_BUFFER_HIT:      56427  ROW_BUFFER_MISS:    2390114
 DBUS AVG_CONGESTED_CYCLE:    3.99481
 WQ ROW_BUFFER_HIT:      26713  ROW_BUFFER_MISS:    1232507  FULL:      30989


CPU 0 Branch Prediction Accuracy: 98.929% MPKI: 0.55515 Average ROB Occupancy at Mispredict: 266.445
Branch type MPKI
BRANCH_DIRECT_JUMP: 0.00045
BRANCH_INDIRECT: 1e-05
BRANCH_CONDITIONAL: 0.5534
BRANCH_DIRECT_CALL: 0.00065
BRANCH_INDIRECT_CALL: 0
BRANCH_RETURN: 0.00064

