
*** ChampSim Multicore Out-of-Order Simulator ***

Warmup Instructions: 10000000
Simulation Instructions: 100000000
Number of CPUs: 1
Off-chip DRAM Size: 4 GiB Channels: 1 Width: 64-bit Data Rate: 3200 MT/s

VirtualMemory physical capacity: 8588881920 num_ppages: 2096895
VirtualMemory page size: 4096 log2_page_size: 12

CPU 0 runs /datasets/cs240c-wi22-a00-public/data/Assignment2/soplex_217B.trace.xz
CPU 0 Bimodal branch predictor
Basic BTB sets: 1024 ways: 8 indirect buffer size: 4096 RAS size: 64
Initialize SRRIP state
Heartbeat CPU 0 instructions: 10000000 cycles: 2844430 heartbeat IPC: 3.51564 cumulative IPC: 3.51564 (Simulation time: 0 hr 0 min 33 sec) 

Warmup complete CPU 0 instructions: 10000004 cycles: 2844431 (Simulation time: 0 hr 0 min 33 sec) 

Heartbeat CPU 0 instructions: 20000000 cycles: 34451344 heartbeat IPC: 0.316386 cumulative IPC: 0.316386 (Simulation time: 0 hr 2 min 14 sec) 
Heartbeat CPU 0 instructions: 30000004 cycles: 64793240 heartbeat IPC: 0.329577 cumulative IPC: 0.322847 (Simulation time: 0 hr 4 min 0 sec) 
Heartbeat CPU 0 instructions: 40000003 cycles: 95515260 heartbeat IPC: 0.325499 cumulative IPC: 0.323726 (Simulation time: 0 hr 5 min 27 sec) 
Heartbeat CPU 0 instructions: 50000000 cycles: 124631564 heartbeat IPC: 0.34345 cumulative IPC: 0.328442 (Simulation time: 0 hr 6 min 50 sec) 
Heartbeat CPU 0 instructions: 60000002 cycles: 154833578 heartbeat IPC: 0.331104 cumulative IPC: 0.328971 (Simulation time: 0 hr 8 min 18 sec) 
Heartbeat CPU 0 instructions: 70000000 cycles: 199666729 heartbeat IPC: 0.223049 cumulative IPC: 0.304843 (Simulation time: 0 hr 10 min 20 sec) 
Heartbeat CPU 0 instructions: 80000000 cycles: 232237378 heartbeat IPC: 0.307025 cumulative IPC: 0.305153 (Simulation time: 0 hr 11 min 37 sec) 
Heartbeat CPU 0 instructions: 90000002 cycles: 261895917 heartbeat IPC: 0.337171 cumulative IPC: 0.308819 (Simulation time: 0 hr 13 min 4 sec) 
Heartbeat CPU 0 instructions: 100000001 cycles: 292752169 heartbeat IPC: 0.324083 cumulative IPC: 0.310444 (Simulation time: 0 hr 14 min 37 sec) 
Heartbeat CPU 0 instructions: 110000000 cycles: 321295281 heartbeat IPC: 0.350347 cumulative IPC: 0.31402 (Simulation time: 0 hr 15 min 51 sec) 
Finished CPU 0 instructions: 100000000 cycles: 318450852 cumulative IPC: 0.31402 (Simulation time: 0 hr 15 min 51 sec) 

ChampSim completed all CPUs

Region of Interest Statistics

CPU 0 cumulative IPC: 0.31402 instructions: 100000000 cycles: 318450852
cpu0_DTLB TOTAL     ACCESS:   21882690  HIT:   21017416  MISS:     865274
cpu0_DTLB LOAD      ACCESS:   16717057  HIT:   16033121  MISS:     683936
cpu0_DTLB RFO       ACCESS:    5165633  HIT:    4984295  MISS:     181338
cpu0_DTLB PREFETCH  ACCESS:          0  HIT:          0  MISS:          0
cpu0_DTLB WRITEBACK ACCESS:          0  HIT:          0  MISS:          0
cpu0_DTLB TRANSLATION ACCESS:          0  HIT:          0  MISS:          0
cpu0_DTLB PREFETCH  REQUESTED:          0  ISSUED:          0  USEFUL:          0  USELESS:          0
cpu0_DTLB AVERAGE MISS LATENCY: 14.7275 cycles
cpu0_ITLB TOTAL     ACCESS:    8471657  HIT:    8471639  MISS:         18
cpu0_ITLB LOAD      ACCESS:    8471657  HIT:    8471639  MISS:         18
cpu0_ITLB RFO       ACCESS:          0  HIT:          0  MISS:          0
cpu0_ITLB PREFETCH  ACCESS:          0  HIT:          0  MISS:          0
cpu0_ITLB WRITEBACK ACCESS:          0  HIT:          0  MISS:          0
cpu0_ITLB TRANSLATION ACCESS:          0  HIT:          0  MISS:          0
cpu0_ITLB PREFETCH  REQUESTED:          0  ISSUED:          0  USEFUL:          0  USELESS:          0
cpu0_ITLB AVERAGE MISS LATENCY: 248.833 cycles
cpu0_L1I TOTAL     ACCESS:     355692  HIT:     355039  MISS:        653
cpu0_L1I LOAD      ACCESS:     355692  HIT:     355039  MISS:        653
cpu0_L1I RFO       ACCESS:          0  HIT:          0  MISS:          0
cpu0_L1I PREFETCH  ACCESS:          0  HIT:          0  MISS:          0
cpu0_L1I WRITEBACK ACCESS:          0  HIT:          0  MISS:          0
cpu0_L1I TRANSLATION ACCESS:          0  HIT:          0  MISS:          0
cpu0_L1I PREFETCH  REQUESTED:          0  ISSUED:          0  USEFUL:          0  USELESS:          0
cpu0_L1I AVERAGE MISS LATENCY: 306.55 cycles
cpu0_STLB TOTAL     ACCESS:     865292  HIT:     741778  MISS:     123514
cpu0_STLB LOAD      ACCESS:     683954  HIT:     569794  MISS:     114160
cpu0_STLB RFO       ACCESS:     181338  HIT:     171984  MISS:       9354
cpu0_STLB PREFETCH  ACCESS:          0  HIT:          0  MISS:          0
cpu0_STLB WRITEBACK ACCESS:          0  HIT:          0  MISS:          0
cpu0_STLB TRANSLATION ACCESS:          0  HIT:          0  MISS:          0
cpu0_STLB PREFETCH  REQUESTED:          0  ISSUED:          0  USEFUL:          0  USELESS:          0
cpu0_STLB AVERAGE MISS LATENCY: 38.9892 cycles
cpu0_L1D TOTAL     ACCESS:   18166273  HIT:   12342254  MISS:    5824019
cpu0_L1D LOAD      ACCESS:   12233103  HIT:    7238736  MISS:    4994367
cpu0_L1D RFO       ACCESS:    5813247  HIT:    4988611  MISS:     824636
cpu0_L1D PREFETCH  ACCESS:          0  HIT:          0  MISS:          0
cpu0_L1D WRITEBACK ACCESS:          0  HIT:          0  MISS:          0
cpu0_L1D TRANSLATION ACCESS:     119923  HIT:     114907  MISS:       5016
cpu0_L1D PREFETCH  REQUESTED:          0  ISSUED:          0  USEFUL:          0  USELESS:          0
cpu0_L1D AVERAGE MISS LATENCY: 196.864 cycles
cpu0_L2C TOTAL     ACCESS:    8411838  HIT:    3954553  MISS:    4457285
cpu0_L2C LOAD      ACCESS:    4994447  HIT:    1232125  MISS:    3762322
cpu0_L2C RFO       ACCESS:     824569  HIT:     130460  MISS:     694109
cpu0_L2C PREFETCH  ACCESS:          0  HIT:          0  MISS:          0
cpu0_L2C WRITEBACK ACCESS:    2587806  HIT:    2587703  MISS:        103
cpu0_L2C TRANSLATION ACCESS:       5016  HIT:       4265  MISS:        751
cpu0_L2C PREFETCH  REQUESTED:          0  ISSUED:          0  USEFUL:          0  USELESS:          0
cpu0_L2C AVERAGE MISS LATENCY: 242.66 cycles
LLC TOTAL     ACCESS:    6308118  HIT:    3152466  MISS:    3155652
LLC LOAD      ACCESS:    3762305  HIT:    1483219  MISS:    2279086
LLC RFO       ACCESS:     694107  HIT:     251611  MISS:     442496
LLC PREFETCH  ACCESS:          0  HIT:          0  MISS:          0
LLC WRITEBACK ACCESS:    1850955  HIT:    1417333  MISS:     433622
LLC TRANSLATION ACCESS:        751  HIT:        303  MISS:        448
LLC PREFETCH  REQUESTED:          0  ISSUED:          0  USEFUL:          0  USELESS:          0
LLC AVERAGE MISS LATENCY: 312.687 cycles
Insertion Distribution: 
	LOAD 360633 0 352163 1850585 
	RFO 107393 0 112158 269436 
	PREF 0 0 0 0 
	WRITEBACK 0 0 0 517489 
	 6 0 189 306 
Total Prefetch Downgrades: 0

DRAM Statistics
 CHANNEL 0
 RQ ROW_BUFFER_HIT:     308325  ROW_BUFFER_MISS:    2411032
 DBUS AVG_CONGESTED_CYCLE:    3.94665
 WQ ROW_BUFFER_HIT:      50043  ROW_BUFFER_MISS:     895928  FULL:     317276


CPU 0 Branch Prediction Accuracy: 93.2069% MPKI: 14.28 Average ROB Occupancy at Mispredict: 49.7096
Branch type MPKI
BRANCH_DIRECT_JUMP: 0.00099
BRANCH_INDIRECT: 0.00023
BRANCH_CONDITIONAL: 14.2767
BRANCH_DIRECT_CALL: 0.00062
BRANCH_INDIRECT_CALL: 0.00054
BRANCH_RETURN: 0.00093

