
*** ChampSim Multicore Out-of-Order Simulator ***

Warmup Instructions: 10000000
Simulation Instructions: 100000000
Number of CPUs: 1
Off-chip DRAM Size: 4 GiB Channels: 1 Width: 64-bit Data Rate: 3200 MT/s

VirtualMemory physical capacity: 8588881920 num_ppages: 2096895
VirtualMemory page size: 4096 log2_page_size: 12

CPU 0 runs /datasets/cs240c-wi22-a00-public/data/Assignment2/gcc_13B.trace.xz
CPU 0 Bimodal branch predictor
Basic BTB sets: 1024 ways: 8 indirect buffer size: 4096 RAS size: 64
Initialize SRRIP state
Heartbeat CPU 0 instructions: 10000003 cycles: 2971591 heartbeat IPC: 3.3652 cumulative IPC: 3.3652 (Simulation time: 0 hr 0 min 41 sec) 

Warmup complete CPU 0 instructions: 10000003 cycles: 2971591 (Simulation time: 0 hr 0 min 41 sec) 

Heartbeat CPU 0 instructions: 20000003 cycles: 48425806 heartbeat IPC: 0.220002 cumulative IPC: 0.220002 (Simulation time: 0 hr 2 min 28 sec) 
Heartbeat CPU 0 instructions: 30000002 cycles: 99684440 heartbeat IPC: 0.195089 cumulative IPC: 0.206798 (Simulation time: 0 hr 4 min 24 sec) 
Heartbeat CPU 0 instructions: 40000004 cycles: 135986211 heartbeat IPC: 0.275469 cumulative IPC: 0.225539 (Simulation time: 0 hr 6 min 11 sec) 
Heartbeat CPU 0 instructions: 50000002 cycles: 154102549 heartbeat IPC: 0.551988 cumulative IPC: 0.264671 (Simulation time: 0 hr 6 min 50 sec) 
Heartbeat CPU 0 instructions: 60000003 cycles: 172116468 heartbeat IPC: 0.555126 cumulative IPC: 0.295605 (Simulation time: 0 hr 7 min 29 sec) 
Heartbeat CPU 0 instructions: 70000000 cycles: 189960628 heartbeat IPC: 0.560407 cumulative IPC: 0.320874 (Simulation time: 0 hr 8 min 9 sec) 
Heartbeat CPU 0 instructions: 80000002 cycles: 208035661 heartbeat IPC: 0.553249 cumulative IPC: 0.341357 (Simulation time: 0 hr 8 min 48 sec) 
Heartbeat CPU 0 instructions: 90000000 cycles: 226107712 heartbeat IPC: 0.55334 cumulative IPC: 0.358526 (Simulation time: 0 hr 9 min 24 sec) 
Heartbeat CPU 0 instructions: 100000000 cycles: 243906278 heartbeat IPC: 0.561843 cumulative IPC: 0.373545 (Simulation time: 0 hr 10 min 4 sec) 
Heartbeat CPU 0 instructions: 110000002 cycles: 268391196 heartbeat IPC: 0.408415 cumulative IPC: 0.376762 (Simulation time: 0 hr 10 min 52 sec) 
Finished CPU 0 instructions: 100000004 cycles: 265419606 cumulative IPC: 0.376762 (Simulation time: 0 hr 10 min 52 sec) 

ChampSim completed all CPUs

Region of Interest Statistics

CPU 0 cumulative IPC: 0.376762 instructions: 100000004 cycles: 265419606
cpu0_DTLB TOTAL     ACCESS:   19461167  HIT:   19358977  MISS:     102190
cpu0_DTLB LOAD      ACCESS:   14025191  HIT:   13937955  MISS:      87236
cpu0_DTLB RFO       ACCESS:    5435976  HIT:    5421022  MISS:      14954
cpu0_DTLB PREFETCH  ACCESS:          0  HIT:          0  MISS:          0
cpu0_DTLB WRITEBACK ACCESS:          0  HIT:          0  MISS:          0
cpu0_DTLB TRANSLATION ACCESS:          0  HIT:          0  MISS:          0
cpu0_DTLB PREFETCH  REQUESTED:          0  ISSUED:          0  USEFUL:          0  USELESS:          0
cpu0_DTLB AVERAGE MISS LATENCY: 26.8474 cycles
cpu0_ITLB TOTAL     ACCESS:   10352953  HIT:   10352892  MISS:         61
cpu0_ITLB LOAD      ACCESS:   10352953  HIT:   10352892  MISS:         61
cpu0_ITLB RFO       ACCESS:          0  HIT:          0  MISS:          0
cpu0_ITLB PREFETCH  ACCESS:          0  HIT:          0  MISS:          0
cpu0_ITLB WRITEBACK ACCESS:          0  HIT:          0  MISS:          0
cpu0_ITLB TRANSLATION ACCESS:          0  HIT:          0  MISS:          0
cpu0_ITLB PREFETCH  REQUESTED:          0  ISSUED:          0  USEFUL:          0  USELESS:          0
cpu0_ITLB AVERAGE MISS LATENCY: 146.672 cycles
cpu0_L1I TOTAL     ACCESS:    6565303  HIT:    6564931  MISS:        372
cpu0_L1I LOAD      ACCESS:    6565303  HIT:    6564931  MISS:        372
cpu0_L1I RFO       ACCESS:          0  HIT:          0  MISS:          0
cpu0_L1I PREFETCH  ACCESS:          0  HIT:          0  MISS:          0
cpu0_L1I WRITEBACK ACCESS:          0  HIT:          0  MISS:          0
cpu0_L1I TRANSLATION ACCESS:          0  HIT:          0  MISS:          0
cpu0_L1I PREFETCH  REQUESTED:          0  ISSUED:          0  USEFUL:          0  USELESS:          0
cpu0_L1I AVERAGE MISS LATENCY: 170.134 cycles
cpu0_STLB TOTAL     ACCESS:     102251  HIT:      33351  MISS:      68900
cpu0_STLB LOAD      ACCESS:      87297  HIT:      30348  MISS:      56949
cpu0_STLB RFO       ACCESS:      14954  HIT:       3003  MISS:      11951
cpu0_STLB PREFETCH  ACCESS:          0  HIT:          0  MISS:          0
cpu0_STLB WRITEBACK ACCESS:          0  HIT:          0  MISS:          0
cpu0_STLB TRANSLATION ACCESS:          0  HIT:          0  MISS:          0
cpu0_STLB PREFETCH  REQUESTED:          0  ISSUED:          0  USEFUL:          0  USELESS:          0
cpu0_STLB AVERAGE MISS LATENCY: 26.5864 cycles
cpu0_L1D TOTAL     ACCESS:   26265637  HIT:   24721877  MISS:    1543760
cpu0_L1D LOAD      ACCESS:   12775838  HIT:   11508210  MISS:    1267628
cpu0_L1D RFO       ACCESS:   13421102  HIT:   13146042  MISS:     275060
cpu0_L1D PREFETCH  ACCESS:          0  HIT:          0  MISS:          0
cpu0_L1D WRITEBACK ACCESS:          0  HIT:          0  MISS:          0
cpu0_L1D TRANSLATION ACCESS:      68697  HIT:      67625  MISS:       1072
cpu0_L1D PREFETCH  REQUESTED:          0  ISSUED:          0  USEFUL:          0  USELESS:          0
cpu0_L1D AVERAGE MISS LATENCY: 254.492 cycles
cpu0_L2C TOTAL     ACCESS:    1956784  HIT:     461725  MISS:    1495059
cpu0_L2C LOAD      ACCESS:    1268000  HIT:      46443  MISS:    1221557
cpu0_L2C RFO       ACCESS:     275060  HIT:       1818  MISS:     273242
cpu0_L2C PREFETCH  ACCESS:          0  HIT:          0  MISS:          0
cpu0_L2C WRITEBACK ACCESS:     412652  HIT:     412601  MISS:         51
cpu0_L2C TRANSLATION ACCESS:       1072  HIT:        863  MISS:        209
cpu0_L2C PREFETCH  REQUESTED:          0  ISSUED:          0  USEFUL:          0  USELESS:          0
cpu0_L2C AVERAGE MISS LATENCY: 251.431 cycles
LLC TOTAL     ACCESS:    1905361  HIT:     245772  MISS:    1659589
LLC LOAD      ACCESS:    1221556  HIT:     138122  MISS:    1083434
LLC RFO       ACCESS:     273242  HIT:      33196  MISS:     240046
LLC PREFETCH  ACCESS:          0  HIT:          0  MISS:          0
LLC WRITEBACK ACCESS:     410354  HIT:      74269  MISS:     336085
LLC TRANSLATION ACCESS:        209  HIT:        185  MISS:         24
LLC PREFETCH  REQUESTED:          0  ISSUED:          0  USEFUL:          0  USELESS:          0
LLC AVERAGE MISS LATENCY: 207.55 cycles
Insertion Distribution: 
	LOAD 8970 0 217746 1130494 
	RFO 3292 0 55760 344097 
	PREF 0 0 0 0 
	WRITEBACK 0 0 0 494302 
	 0 0 36 15 
Total Prefetch Downgrades: 0

DRAM Statistics
 CHANNEL 0
 RQ ROW_BUFFER_HIT:     206601  ROW_BUFFER_MISS:    1116817
 DBUS AVG_CONGESTED_CYCLE:    3.91899
 WQ ROW_BUFFER_HIT:      51959  ROW_BUFFER_MISS:     323533  FULL:     142978


CPU 0 Branch Prediction Accuracy: 87.437% MPKI: 28.6507 Average ROB Occupancy at Mispredict: 19.88
Branch type MPKI
BRANCH_DIRECT_JUMP: 0.0008
BRANCH_INDIRECT: 0.00403
BRANCH_CONDITIONAL: 28.6428
BRANCH_DIRECT_CALL: 0.00114
BRANCH_INDIRECT_CALL: 0.0008
BRANCH_RETURN: 0.00114

