
*** ChampSim Multicore Out-of-Order Simulator ***

Warmup Instructions: 10000000
Simulation Instructions: 100000000
Number of CPUs: 1
Off-chip DRAM Size: 4 GiB Channels: 1 Width: 64-bit Data Rate: 3200 MT/s

VirtualMemory physical capacity: 8588881920 num_ppages: 2096895
VirtualMemory page size: 4096 log2_page_size: 12

CPU 0 runs /datasets/cs240c-wi22-a00-public/data/Assignment2/sphinx3_883B.trace.xz
CPU 0 Bimodal branch predictor
Basic BTB sets: 1024 ways: 8 indirect buffer size: 4096 RAS size: 64
Initialize SRRIP state
Heartbeat CPU 0 instructions: 10000003 cycles: 2628882 heartbeat IPC: 3.8039 cumulative IPC: 3.8039 (Simulation time: 0 hr 0 min 32 sec) 

Warmup complete CPU 0 instructions: 10000003 cycles: 2628882 (Simulation time: 0 hr 0 min 32 sec) 

Heartbeat CPU 0 instructions: 20000000 cycles: 14698875 heartbeat IPC: 0.828501 cumulative IPC: 0.828501 (Simulation time: 0 hr 1 min 31 sec) 
Heartbeat CPU 0 instructions: 30000001 cycles: 27065626 heartbeat IPC: 0.80862 cumulative IPC: 0.81844 (Simulation time: 0 hr 2 min 24 sec) 
Heartbeat CPU 0 instructions: 40000004 cycles: 38775606 heartbeat IPC: 0.853973 cumulative IPC: 0.829951 (Simulation time: 0 hr 3 min 16 sec) 
Heartbeat CPU 0 instructions: 50000003 cycles: 50253075 heartbeat IPC: 0.871272 cumulative IPC: 0.839909 (Simulation time: 0 hr 4 min 8 sec) 
Heartbeat CPU 0 instructions: 60000000 cycles: 61448045 heartbeat IPC: 0.893258 cumulative IPC: 0.850063 (Simulation time: 0 hr 5 min 2 sec) 
Heartbeat CPU 0 instructions: 70000000 cycles: 70264594 heartbeat IPC: 1.13423 cumulative IPC: 0.887105 (Simulation time: 0 hr 5 min 48 sec) 
Heartbeat CPU 0 instructions: 80000000 cycles: 80571223 heartbeat IPC: 0.970249 cumulative IPC: 0.8981 (Simulation time: 0 hr 6 min 40 sec) 
Heartbeat CPU 0 instructions: 90000002 cycles: 89062588 heartbeat IPC: 1.17767 cumulative IPC: 0.925565 (Simulation time: 0 hr 7 min 25 sec) 
Heartbeat CPU 0 instructions: 100000003 cycles: 96622622 heartbeat IPC: 1.32275 cumulative IPC: 0.957511 (Simulation time: 0 hr 8 min 9 sec) 
Heartbeat CPU 0 instructions: 110000003 cycles: 106209095 heartbeat IPC: 1.04314 cumulative IPC: 0.965435 (Simulation time: 0 hr 8 min 58 sec) 
Finished CPU 0 instructions: 100000000 cycles: 103580213 cumulative IPC: 0.965435 (Simulation time: 0 hr 8 min 58 sec) 

ChampSim completed all CPUs

Region of Interest Statistics

CPU 0 cumulative IPC: 0.965435 instructions: 100000000 cycles: 103580213
cpu0_DTLB TOTAL     ACCESS:   16759946  HIT:   16599943  MISS:     160003
cpu0_DTLB LOAD      ACCESS:   15429396  HIT:   15277676  MISS:     151720
cpu0_DTLB RFO       ACCESS:    1330550  HIT:    1322267  MISS:       8283
cpu0_DTLB PREFETCH  ACCESS:          0  HIT:          0  MISS:          0
cpu0_DTLB WRITEBACK ACCESS:          0  HIT:          0  MISS:          0
cpu0_DTLB TRANSLATION ACCESS:          0  HIT:          0  MISS:          0
cpu0_DTLB PREFETCH  REQUESTED:          0  ISSUED:          0  USEFUL:          0  USELESS:          0
cpu0_DTLB AVERAGE MISS LATENCY: 12.8328 cycles
cpu0_ITLB TOTAL     ACCESS:    9426102  HIT:    9426037  MISS:         65
cpu0_ITLB LOAD      ACCESS:    9426102  HIT:    9426037  MISS:         65
cpu0_ITLB RFO       ACCESS:          0  HIT:          0  MISS:          0
cpu0_ITLB PREFETCH  ACCESS:          0  HIT:          0  MISS:          0
cpu0_ITLB WRITEBACK ACCESS:          0  HIT:          0  MISS:          0
cpu0_ITLB TRANSLATION ACCESS:          0  HIT:          0  MISS:          0
cpu0_ITLB PREFETCH  REQUESTED:          0  ISSUED:          0  USEFUL:          0  USELESS:          0
cpu0_ITLB AVERAGE MISS LATENCY: 159.708 cycles
cpu0_L1I TOTAL     ACCESS:     192555  HIT:     191175  MISS:       1380
cpu0_L1I LOAD      ACCESS:     192555  HIT:     191175  MISS:       1380
cpu0_L1I RFO       ACCESS:          0  HIT:          0  MISS:          0
cpu0_L1I PREFETCH  ACCESS:          0  HIT:          0  MISS:          0
cpu0_L1I WRITEBACK ACCESS:          0  HIT:          0  MISS:          0
cpu0_L1I TRANSLATION ACCESS:          0  HIT:          0  MISS:          0
cpu0_L1I PREFETCH  REQUESTED:          0  ISSUED:          0  USEFUL:          0  USELESS:          0
cpu0_L1I AVERAGE MISS LATENCY: 196.815 cycles
cpu0_STLB TOTAL     ACCESS:     160068  HIT:      99175  MISS:      60893
cpu0_STLB LOAD      ACCESS:     151785  HIT:      92111  MISS:      59674
cpu0_STLB RFO       ACCESS:       8283  HIT:       7064  MISS:       1219
cpu0_STLB PREFETCH  ACCESS:          0  HIT:          0  MISS:          0
cpu0_STLB WRITEBACK ACCESS:          0  HIT:          0  MISS:          0
cpu0_STLB TRANSLATION ACCESS:          0  HIT:          0  MISS:          0
cpu0_STLB PREFETCH  REQUESTED:          0  ISSUED:          0  USEFUL:          0  USELESS:          0
cpu0_STLB AVERAGE MISS LATENCY: 10.1067 cycles
cpu0_L1D TOTAL     ACCESS:   12755701  HIT:   11006429  MISS:    1749272
cpu0_L1D LOAD      ACCESS:   10514423  HIT:    8880079  MISS:    1634344
cpu0_L1D RFO       ACCESS:    2183155  HIT:    2069020  MISS:     114135
cpu0_L1D PREFETCH  ACCESS:          0  HIT:          0  MISS:          0
cpu0_L1D WRITEBACK ACCESS:          0  HIT:          0  MISS:          0
cpu0_L1D TRANSLATION ACCESS:      58123  HIT:      57330  MISS:        793
cpu0_L1D PREFETCH  REQUESTED:          0  ISSUED:          0  USEFUL:          0  USELESS:          0
cpu0_L1D AVERAGE MISS LATENCY: 109.461 cycles
cpu0_L2C TOTAL     ACCESS:    1908236  HIT:     517666  MISS:    1390570
cpu0_L2C LOAD      ACCESS:    1635721  HIT:     346912  MISS:    1288809
cpu0_L2C RFO       ACCESS:     114130  HIT:      12987  MISS:     101143
cpu0_L2C PREFETCH  ACCESS:          0  HIT:          0  MISS:          0
cpu0_L2C WRITEBACK ACCESS:     157592  HIT:     157295  MISS:        297
cpu0_L2C TRANSLATION ACCESS:        793  HIT:        472  MISS:        321
cpu0_L2C PREFETCH  REQUESTED:          0  ISSUED:          0  USEFUL:          0  USELESS:          0
cpu0_L2C AVERAGE MISS LATENCY: 123.985 cycles
LLC TOTAL     ACCESS:    1524814  HIT:     784804  MISS:     740010
LLC LOAD      ACCESS:    1288809  HIT:     596642  MISS:     692167
LLC RFO       ACCESS:     101143  HIT:      73959  MISS:      27184
LLC PREFETCH  ACCESS:          0  HIT:          0  MISS:          0
LLC WRITEBACK ACCESS:     134541  HIT:     113927  MISS:      20614
LLC TRANSLATION ACCESS:        321  HIT:        276  MISS:         45
LLC PREFETCH  REQUESTED:          0  ISSUED:          0  USEFUL:          0  USELESS:          0
LLC AVERAGE MISS LATENCY: 193.526 cycles
Insertion Distribution: 
	LOAD 48508 0 154465 607688 
	RFO 6769 0 9158 16812 
	PREF 0 0 0 0 
	WRITEBACK 0 0 0 20880 
	 5 0 37 18 
Total Prefetch Downgrades: 0

DRAM Statistics
 CHANNEL 0
 RQ ROW_BUFFER_HIT:      79284  ROW_BUFFER_MISS:     639752
 DBUS AVG_CONGESTED_CYCLE:    3.79601
 WQ ROW_BUFFER_HIT:      11085  ROW_BUFFER_MISS:      25104  FULL:       6662


CPU 0 Branch Prediction Accuracy: 91.645% MPKI: 7.87682 Average ROB Occupancy at Mispredict: 157.247
Branch type MPKI
BRANCH_DIRECT_JUMP: 0.0017
BRANCH_INDIRECT: 0.00111
BRANCH_CONDITIONAL: 7.87013
BRANCH_DIRECT_CALL: 0.00166
BRANCH_INDIRECT_CALL: 0.0005
BRANCH_RETURN: 0.00172

