
*** ChampSim Multicore Out-of-Order Simulator ***

Warmup Instructions: 10000000
Simulation Instructions: 100000000
Number of CPUs: 1
Off-chip DRAM Size: 4 GiB Channels: 1 Width: 64-bit Data Rate: 3200 MT/s

VirtualMemory physical capacity: 8588881920 num_ppages: 2096895
VirtualMemory page size: 4096 log2_page_size: 12

CPU 0 runs /datasets/cs240c-wi22-a00-public/data/Assignment2/omnetpp_4B.trace.xz
CPU 0 Bimodal branch predictor
Basic BTB sets: 1024 ways: 8 indirect buffer size: 4096 RAS size: 64
Initialize SRRIP state
Heartbeat CPU 0 instructions: 10000002 cycles: 2526478 heartbeat IPC: 3.95808 cumulative IPC: 3.95808 (Simulation time: 0 hr 0 min 27 sec) 

Warmup complete CPU 0 instructions: 10000002 cycles: 2526478 (Simulation time: 0 hr 0 min 27 sec) 

Heartbeat CPU 0 instructions: 20000000 cycles: 9223909 heartbeat IPC: 1.49311 cumulative IPC: 1.49311 (Simulation time: 0 hr 1 min 4 sec) 
Heartbeat CPU 0 instructions: 30000001 cycles: 15870494 heartbeat IPC: 1.50453 cumulative IPC: 1.4988 (Simulation time: 0 hr 1 min 46 sec) 
Heartbeat CPU 0 instructions: 40000002 cycles: 22629313 heartbeat IPC: 1.47955 cumulative IPC: 1.49233 (Simulation time: 0 hr 2 min 29 sec) 
Heartbeat CPU 0 instructions: 50000000 cycles: 29534047 heartbeat IPC: 1.44828 cumulative IPC: 1.48107 (Simulation time: 0 hr 3 min 11 sec) 
Heartbeat CPU 0 instructions: 60000000 cycles: 36172594 heartbeat IPC: 1.50635 cumulative IPC: 1.48606 (Simulation time: 0 hr 3 min 53 sec) 
Heartbeat CPU 0 instructions: 70000000 cycles: 42746910 heartbeat IPC: 1.52107 cumulative IPC: 1.49178 (Simulation time: 0 hr 4 min 31 sec) 
Heartbeat CPU 0 instructions: 80000000 cycles: 49358803 heartbeat IPC: 1.51243 cumulative IPC: 1.49469 (Simulation time: 0 hr 5 min 12 sec) 
Heartbeat CPU 0 instructions: 90000000 cycles: 56344564 heartbeat IPC: 1.43148 cumulative IPC: 1.48649 (Simulation time: 0 hr 5 min 57 sec) 
Heartbeat CPU 0 instructions: 100000001 cycles: 62764968 heartbeat IPC: 1.55753 cumulative IPC: 1.49406 (Simulation time: 0 hr 6 min 33 sec) 
Heartbeat CPU 0 instructions: 110000002 cycles: 69477596 heartbeat IPC: 1.48973 cumulative IPC: 1.49363 (Simulation time: 0 hr 7 min 12 sec) 
Finished CPU 0 instructions: 100000000 cycles: 66951118 cumulative IPC: 1.49363 (Simulation time: 0 hr 7 min 12 sec) 

ChampSim completed all CPUs

Region of Interest Statistics

CPU 0 cumulative IPC: 1.49363 instructions: 100000000 cycles: 66951118
cpu0_DTLB TOTAL     ACCESS:   11676406  HIT:   10244515  MISS:    1431891
cpu0_DTLB LOAD      ACCESS:    9089979  HIT:    7659651  MISS:    1430328
cpu0_DTLB RFO       ACCESS:    2586427  HIT:    2584864  MISS:       1563
cpu0_DTLB PREFETCH  ACCESS:          0  HIT:          0  MISS:          0
cpu0_DTLB WRITEBACK ACCESS:          0  HIT:          0  MISS:          0
cpu0_DTLB TRANSLATION ACCESS:          0  HIT:          0  MISS:          0
cpu0_DTLB PREFETCH  REQUESTED:          0  ISSUED:          0  USEFUL:          0  USELESS:          0
cpu0_DTLB AVERAGE MISS LATENCY: 17.564 cycles
cpu0_ITLB TOTAL     ACCESS:    7987649  HIT:    7963482  MISS:      24167
cpu0_ITLB LOAD      ACCESS:    7987649  HIT:    7963482  MISS:      24167
cpu0_ITLB RFO       ACCESS:          0  HIT:          0  MISS:          0
cpu0_ITLB PREFETCH  ACCESS:          0  HIT:          0  MISS:          0
cpu0_ITLB WRITEBACK ACCESS:          0  HIT:          0  MISS:          0
cpu0_ITLB TRANSLATION ACCESS:          0  HIT:          0  MISS:          0
cpu0_ITLB PREFETCH  REQUESTED:          0  ISSUED:          0  USEFUL:          0  USELESS:          0
cpu0_ITLB AVERAGE MISS LATENCY: 10.8411 cycles
cpu0_L1I TOTAL     ACCESS:    1939529  HIT:    1876595  MISS:      62934
cpu0_L1I LOAD      ACCESS:    1939529  HIT:    1876595  MISS:      62934
cpu0_L1I RFO       ACCESS:          0  HIT:          0  MISS:          0
cpu0_L1I PREFETCH  ACCESS:          0  HIT:          0  MISS:          0
cpu0_L1I WRITEBACK ACCESS:          0  HIT:          0  MISS:          0
cpu0_L1I TRANSLATION ACCESS:          0  HIT:          0  MISS:          0
cpu0_L1I PREFETCH  REQUESTED:          0  ISSUED:          0  USEFUL:          0  USELESS:          0
cpu0_L1I AVERAGE MISS LATENCY: 38.9462 cycles
cpu0_STLB TOTAL     ACCESS:    1456058  HIT:      23509  MISS:    1432549
cpu0_STLB LOAD      ACCESS:    1454495  HIT:      22763  MISS:    1431732
cpu0_STLB RFO       ACCESS:       1563  HIT:        746  MISS:        817
cpu0_STLB PREFETCH  ACCESS:          0  HIT:          0  MISS:          0
cpu0_STLB WRITEBACK ACCESS:          0  HIT:          0  MISS:          0
cpu0_STLB TRANSLATION ACCESS:          0  HIT:          0  MISS:          0
cpu0_STLB PREFETCH  REQUESTED:          0  ISSUED:          0  USEFUL:          0  USELESS:          0
cpu0_STLB AVERAGE MISS LATENCY: 8.12682 cycles
cpu0_L1D TOTAL     ACCESS:   12484436  HIT:    9994537  MISS:    2489899
cpu0_L1D LOAD      ACCESS:    7238542  HIT:    4787356  MISS:    2451186
cpu0_L1D RFO       ACCESS:    4654337  HIT:    4616608  MISS:      37729
cpu0_L1D PREFETCH  ACCESS:          0  HIT:          0  MISS:          0
cpu0_L1D WRITEBACK ACCESS:          0  HIT:          0  MISS:          0
cpu0_L1D TRANSLATION ACCESS:     591557  HIT:     590573  MISS:        984
cpu0_L1D PREFETCH  REQUESTED:          0  ISSUED:          0  USEFUL:          0  USELESS:          0
cpu0_L1D AVERAGE MISS LATENCY: 61.0474 cycles
cpu0_L2C TOTAL     ACCESS:    2633786  HIT:     114356  MISS:    2519430
cpu0_L2C LOAD      ACCESS:    2514119  HIT:      32417  MISS:    2481702
cpu0_L2C RFO       ACCESS:      37729  HIT:        794  MISS:      36935
cpu0_L2C PREFETCH  ACCESS:          0  HIT:          0  MISS:          0
cpu0_L2C WRITEBACK ACCESS:      80954  HIT:      80954  MISS:          0
cpu0_L2C TRANSLATION ACCESS:        984  HIT:        191  MISS:        793
cpu0_L2C PREFETCH  REQUESTED:          0  ISSUED:          0  USEFUL:          0  USELESS:          0
cpu0_L2C AVERAGE MISS LATENCY: 49.4786 cycles
LLC TOTAL     ACCESS:    2598971  HIT:    2324115  MISS:     274856
LLC LOAD      ACCESS:    2481698  HIT:    2241143  MISS:     240555
LLC RFO       ACCESS:      36935  HIT:      20671  MISS:      16264
LLC PREFETCH  ACCESS:          0  HIT:          0  MISS:          0
LLC WRITEBACK ACCESS:      79545  HIT:      61549  MISS:      17996
LLC TRANSLATION ACCESS:        793  HIT:        752  MISS:         41
LLC PREFETCH  REQUESTED:          0  ISSUED:          0  USEFUL:          0  USELESS:          0
LLC AVERAGE MISS LATENCY: 260.966 cycles
Insertion Distribution: 
	LOAD 0 0 198149 103556 
	RFO 0 0 8969 9130 
	PREF 0 0 0 0 
	WRITEBACK 0 0 0 19564 
	 0 0 55 11 
Total Prefetch Downgrades: 0

DRAM Statistics
 CHANNEL 0
 RQ ROW_BUFFER_HIT:      26807  ROW_BUFFER_MISS:     228772
 DBUS AVG_CONGESTED_CYCLE:    3.93934
 WQ ROW_BUFFER_HIT:       5432  ROW_BUFFER_MISS:      43601  FULL:          0


CPU 0 Branch Prediction Accuracy: 97.4293% MPKI: 8.26178 Average ROB Occupancy at Mispredict: 56.9522
Branch type MPKI
BRANCH_DIRECT_JUMP: 0.00037
BRANCH_INDIRECT: 0.12485
BRANCH_CONDITIONAL: 8.10493
BRANCH_DIRECT_CALL: 0.00326
BRANCH_INDIRECT_CALL: 0.00558
BRANCH_RETURN: 0.02279

