
*** ChampSim Multicore Out-of-Order Simulator ***

Warmup Instructions: 10000000
Simulation Instructions: 100000000
Number of CPUs: 1
Off-chip DRAM Size: 4 GiB Channels: 1 Width: 64-bit Data Rate: 3200 MT/s

VirtualMemory physical capacity: 8588881920 num_ppages: 2096895
VirtualMemory page size: 4096 log2_page_size: 12

CPU 0 runs /datasets/cs240c-wi22-a00-public/data/Assignment2/leslie3d_1116B.trace.xz
CPU 0 Bimodal branch predictor
Basic BTB sets: 1024 ways: 8 indirect buffer size: 4096 RAS size: 64
Initialize SRRIP state
Heartbeat CPU 0 instructions: 10000000 cycles: 3692429 heartbeat IPC: 2.70824 cumulative IPC: 2.70824 (Simulation time: 0 hr 0 min 45 sec) 

Warmup complete CPU 0 instructions: 10000005 cycles: 3692430 (Simulation time: 0 hr 0 min 45 sec) 

Heartbeat CPU 0 instructions: 20000000 cycles: 13570083 heartbeat IPC: 1.01239 cumulative IPC: 1.01239 (Simulation time: 0 hr 2 min 6 sec) 
Heartbeat CPU 0 instructions: 30000004 cycles: 23666302 heartbeat IPC: 0.99047 cumulative IPC: 1.00131 (Simulation time: 0 hr 3 min 32 sec) 
Heartbeat CPU 0 instructions: 40000003 cycles: 36277591 heartbeat IPC: 0.79294 cumulative IPC: 0.920664 (Simulation time: 0 hr 5 min 7 sec) 
Heartbeat CPU 0 instructions: 50000000 cycles: 56762056 heartbeat IPC: 0.488175 cumulative IPC: 0.753727 (Simulation time: 0 hr 7 min 19 sec) 
Heartbeat CPU 0 instructions: 60000001 cycles: 105461092 heartbeat IPC: 0.205343 cumulative IPC: 0.49131 (Simulation time: 0 hr 11 min 38 sec) 
Heartbeat CPU 0 instructions: 70000000 cycles: 124202034 heartbeat IPC: 0.533591 cumulative IPC: 0.497886 (Simulation time: 0 hr 13 min 45 sec) 
Heartbeat CPU 0 instructions: 80000001 cycles: 137786697 heartbeat IPC: 0.736124 cumulative IPC: 0.522021 (Simulation time: 0 hr 15 min 28 sec) 
Heartbeat CPU 0 instructions: 90000004 cycles: 151370453 heartbeat IPC: 0.736174 cumulative IPC: 0.541719 (Simulation time: 0 hr 17 min 13 sec) 
Heartbeat CPU 0 instructions: 100000002 cycles: 164912832 heartbeat IPC: 0.738423 cumulative IPC: 0.558242 (Simulation time: 0 hr 18 min 53 sec) 
Heartbeat CPU 0 instructions: 110000001 cycles: 187928618 heartbeat IPC: 0.434484 cumulative IPC: 0.542782 (Simulation time: 0 hr 21 min 5 sec) 
Finished CPU 0 instructions: 100000000 cycles: 184236190 cumulative IPC: 0.542782 (Simulation time: 0 hr 21 min 5 sec) 

ChampSim completed all CPUs

Region of Interest Statistics

CPU 0 cumulative IPC: 0.542782 instructions: 100000000 cycles: 184236190
cpu0_DTLB TOTAL     ACCESS:   25806423  HIT:   25740732  MISS:      65691
cpu0_DTLB LOAD      ACCESS:   21177822  HIT:   21126181  MISS:      51641
cpu0_DTLB RFO       ACCESS:    4628601  HIT:    4614551  MISS:      14050
cpu0_DTLB PREFETCH  ACCESS:          0  HIT:          0  MISS:          0
cpu0_DTLB WRITEBACK ACCESS:          0  HIT:          0  MISS:          0
cpu0_DTLB TRANSLATION ACCESS:          0  HIT:          0  MISS:          0
cpu0_DTLB PREFETCH  REQUESTED:          0  ISSUED:          0  USEFUL:          0  USELESS:          0
cpu0_DTLB AVERAGE MISS LATENCY: 78.6935 cycles
cpu0_ITLB TOTAL     ACCESS:    2828076  HIT:    2828058  MISS:         18
cpu0_ITLB LOAD      ACCESS:    2828076  HIT:    2828058  MISS:         18
cpu0_ITLB RFO       ACCESS:          0  HIT:          0  MISS:          0
cpu0_ITLB PREFETCH  ACCESS:          0  HIT:          0  MISS:          0
cpu0_ITLB WRITEBACK ACCESS:          0  HIT:          0  MISS:          0
cpu0_ITLB TRANSLATION ACCESS:          0  HIT:          0  MISS:          0
cpu0_ITLB PREFETCH  REQUESTED:          0  ISSUED:          0  USEFUL:          0  USELESS:          0
cpu0_ITLB AVERAGE MISS LATENCY: 463.833 cycles
cpu0_L1I TOTAL     ACCESS:    1779833  HIT:    1779361  MISS:        472
cpu0_L1I LOAD      ACCESS:    1779833  HIT:    1779361  MISS:        472
cpu0_L1I RFO       ACCESS:          0  HIT:          0  MISS:          0
cpu0_L1I PREFETCH  ACCESS:          0  HIT:          0  MISS:          0
cpu0_L1I WRITEBACK ACCESS:          0  HIT:          0  MISS:          0
cpu0_L1I TRANSLATION ACCESS:          0  HIT:          0  MISS:          0
cpu0_L1I PREFETCH  REQUESTED:          0  ISSUED:          0  USEFUL:          0  USELESS:          0
cpu0_L1I AVERAGE MISS LATENCY: 359.847 cycles
cpu0_STLB TOTAL     ACCESS:      65709  HIT:      34085  MISS:      31624
cpu0_STLB LOAD      ACCESS:      51659  HIT:      28193  MISS:      23466
cpu0_STLB RFO       ACCESS:      14050  HIT:       5892  MISS:       8158
cpu0_STLB PREFETCH  ACCESS:          0  HIT:          0  MISS:          0
cpu0_STLB WRITEBACK ACCESS:          0  HIT:          0  MISS:          0
cpu0_STLB TRANSLATION ACCESS:          0  HIT:          0  MISS:          0
cpu0_STLB PREFETCH  REQUESTED:          0  ISSUED:          0  USEFUL:          0  USELESS:          0
cpu0_STLB AVERAGE MISS LATENCY: 145.016 cycles
cpu0_L1D TOTAL     ACCESS:   24521371  HIT:   21111289  MISS:    3410082
cpu0_L1D LOAD      ACCESS:   16370274  HIT:   13753112  MISS:    2617162
cpu0_L1D RFO       ACCESS:    8121775  HIT:    7332495  MISS:     789280
cpu0_L1D PREFETCH  ACCESS:          0  HIT:          0  MISS:          0
cpu0_L1D WRITEBACK ACCESS:          0  HIT:          0  MISS:          0
cpu0_L1D TRANSLATION ACCESS:      29322  HIT:      25682  MISS:       3640
cpu0_L1D PREFETCH  REQUESTED:          0  ISSUED:          0  USEFUL:          0  USELESS:          0
cpu0_L1D AVERAGE MISS LATENCY: 513.364 cycles
cpu0_L2C TOTAL     ACCESS:    4454896  HIT:    1718148  MISS:    2736748
cpu0_L2C LOAD      ACCESS:    2617591  HIT:     507600  MISS:    2109991
cpu0_L2C RFO       ACCESS:     789196  HIT:     162713  MISS:     626483
cpu0_L2C PREFETCH  ACCESS:          0  HIT:          0  MISS:          0
cpu0_L2C WRITEBACK ACCESS:    1044469  HIT:    1044293  MISS:        176
cpu0_L2C TRANSLATION ACCESS:       3640  HIT:       3542  MISS:         98
cpu0_L2C PREFETCH  REQUESTED:          0  ISSUED:          0  USEFUL:          0  USELESS:          0
cpu0_L2C AVERAGE MISS LATENCY: 625.994 cycles
LLC TOTAL     ACCESS:    3497286  HIT:     642076  MISS:    2855210
LLC LOAD      ACCESS:    2109991  HIT:     382526  MISS:    1727465
LLC RFO       ACCESS:     626483  HIT:     124704  MISS:     501779
LLC PREFETCH  ACCESS:          0  HIT:          0  MISS:          0
LLC WRITEBACK ACCESS:     760714  HIT:     134810  MISS:     625904
LLC TRANSLATION ACCESS:         98  HIT:         36  MISS:         62
LLC PREFETCH  REQUESTED:          0  ISSUED:          0  USEFUL:          0  USELESS:          0
LLC AVERAGE MISS LATENCY: 579.858 cycles
Insertion Distribution: 
	LOAD 130604 0 124346 1585523 
	RFO 762 0 6336 521083 
	PREF 0 0 0 0 
	WRITEBACK 0 0 0 645916 
	 1 0 33 43 
Total Prefetch Downgrades: 0

DRAM Statistics
 CHANNEL 0
 RQ ROW_BUFFER_HIT:     209156  ROW_BUFFER_MISS:    2019744
 DBUS AVG_CONGESTED_CYCLE:    3.96189
 WQ ROW_BUFFER_HIT:      66112  ROW_BUFFER_MISS:     597570  FULL:      25861


CPU 0 Branch Prediction Accuracy: 96.8713% MPKI: 1.55303 Average ROB Occupancy at Mispredict: 299.935
Branch type MPKI
BRANCH_DIRECT_JUMP: 0.00018
BRANCH_INDIRECT: 0
BRANCH_CONDITIONAL: 1.55065
BRANCH_DIRECT_CALL: 0.00113
BRANCH_INDIRECT_CALL: 0
BRANCH_RETURN: 0.00107

