
*** ChampSim Multicore Out-of-Order Simulator ***

Warmup Instructions: 10000000
Simulation Instructions: 100000000
Number of CPUs: 1
Off-chip DRAM Size: 4 GiB Channels: 1 Width: 64-bit Data Rate: 3200 MT/s

VirtualMemory physical capacity: 8588881920 num_ppages: 2096895
VirtualMemory page size: 4096 log2_page_size: 12

CPU 0 runs /datasets/cs240c-wi22-a00-public/data/Assignment2/omnetpp_17B.trace.xz
CPU 0 Bimodal branch predictor
Basic BTB sets: 1024 ways: 8 indirect buffer size: 4096 RAS size: 64
Initialize SRRIP state
Heartbeat CPU 0 instructions: 10000002 cycles: 2500125 heartbeat IPC: 3.9998 cumulative IPC: 3.9998 (Simulation time: 0 hr 0 min 26 sec) 

Warmup complete CPU 0 instructions: 10000002 cycles: 2500125 (Simulation time: 0 hr 0 min 26 sec) 

Heartbeat CPU 0 instructions: 20000003 cycles: 8082968 heartbeat IPC: 1.7912 cumulative IPC: 1.7912 (Simulation time: 0 hr 0 min 56 sec) 
Heartbeat CPU 0 instructions: 30000000 cycles: 14580410 heartbeat IPC: 1.53907 cumulative IPC: 1.65559 (Simulation time: 0 hr 1 min 37 sec) 
Heartbeat CPU 0 instructions: 40000001 cycles: 21290510 heartbeat IPC: 1.49029 cumulative IPC: 1.59656 (Simulation time: 0 hr 2 min 22 sec) 
Heartbeat CPU 0 instructions: 50000001 cycles: 27140957 heartbeat IPC: 1.70927 cumulative IPC: 1.62332 (Simulation time: 0 hr 2 min 55 sec) 
Heartbeat CPU 0 instructions: 60000001 cycles: 33093018 heartbeat IPC: 1.68009 cumulative IPC: 1.63437 (Simulation time: 0 hr 3 min 30 sec) 
Heartbeat CPU 0 instructions: 70000000 cycles: 39725777 heartbeat IPC: 1.50767 cumulative IPC: 1.61179 (Simulation time: 0 hr 4 min 13 sec) 
Heartbeat CPU 0 instructions: 80000002 cycles: 46377170 heartbeat IPC: 1.50344 cumulative IPC: 1.59537 (Simulation time: 0 hr 4 min 56 sec) 
Heartbeat CPU 0 instructions: 90000003 cycles: 53059223 heartbeat IPC: 1.49655 cumulative IPC: 1.58231 (Simulation time: 0 hr 5 min 39 sec) 
Heartbeat CPU 0 instructions: 100000002 cycles: 58406693 heartbeat IPC: 1.87004 cumulative IPC: 1.60983 (Simulation time: 0 hr 6 min 6 sec) 
Heartbeat CPU 0 instructions: 110000001 cycles: 64962345 heartbeat IPC: 1.5254 cumulative IPC: 1.60097 (Simulation time: 0 hr 6 min 48 sec) 
Finished CPU 0 instructions: 100000004 cycles: 62462227 cumulative IPC: 1.60097 (Simulation time: 0 hr 6 min 48 sec) 

ChampSim completed all CPUs

Region of Interest Statistics

CPU 0 cumulative IPC: 1.60097 instructions: 100000004 cycles: 62462227
cpu0_DTLB TOTAL     ACCESS:   10175340  HIT:    9110535  MISS:    1064805
cpu0_DTLB LOAD      ACCESS:    8237872  HIT:    7174947  MISS:    1062925
cpu0_DTLB RFO       ACCESS:    1937468  HIT:    1935588  MISS:       1880
cpu0_DTLB PREFETCH  ACCESS:          0  HIT:          0  MISS:          0
cpu0_DTLB WRITEBACK ACCESS:          0  HIT:          0  MISS:          0
cpu0_DTLB TRANSLATION ACCESS:          0  HIT:          0  MISS:          0
cpu0_DTLB PREFETCH  REQUESTED:          0  ISSUED:          0  USEFUL:          0  USELESS:          0
cpu0_DTLB AVERAGE MISS LATENCY: 18.9938 cycles
cpu0_ITLB TOTAL     ACCESS:    8332867  HIT:    8330810  MISS:       2057
cpu0_ITLB LOAD      ACCESS:    8332867  HIT:    8330810  MISS:       2057
cpu0_ITLB RFO       ACCESS:          0  HIT:          0  MISS:          0
cpu0_ITLB PREFETCH  ACCESS:          0  HIT:          0  MISS:          0
cpu0_ITLB WRITEBACK ACCESS:          0  HIT:          0  MISS:          0
cpu0_ITLB TRANSLATION ACCESS:          0  HIT:          0  MISS:          0
cpu0_ITLB PREFETCH  REQUESTED:          0  ISSUED:          0  USEFUL:          0  USELESS:          0
cpu0_ITLB AVERAGE MISS LATENCY: 15.6315 cycles
cpu0_L1I TOTAL     ACCESS:    1054833  HIT:    1050493  MISS:       4340
cpu0_L1I LOAD      ACCESS:    1054833  HIT:    1050493  MISS:       4340
cpu0_L1I RFO       ACCESS:          0  HIT:          0  MISS:          0
cpu0_L1I PREFETCH  ACCESS:          0  HIT:          0  MISS:          0
cpu0_L1I WRITEBACK ACCESS:          0  HIT:          0  MISS:          0
cpu0_L1I TRANSLATION ACCESS:          0  HIT:          0  MISS:          0
cpu0_L1I PREFETCH  REQUESTED:          0  ISSUED:          0  USEFUL:          0  USELESS:          0
cpu0_L1I AVERAGE MISS LATENCY: 72.791 cycles
cpu0_STLB TOTAL     ACCESS:    1066862  HIT:      12747  MISS:    1054115
cpu0_STLB LOAD      ACCESS:    1064982  HIT:      11383  MISS:    1053599
cpu0_STLB RFO       ACCESS:       1880  HIT:       1364  MISS:        516
cpu0_STLB PREFETCH  ACCESS:          0  HIT:          0  MISS:          0
cpu0_STLB WRITEBACK ACCESS:          0  HIT:          0  MISS:          0
cpu0_STLB TRANSLATION ACCESS:          0  HIT:          0  MISS:          0
cpu0_STLB PREFETCH  REQUESTED:          0  ISSUED:          0  USEFUL:          0  USELESS:          0
cpu0_STLB AVERAGE MISS LATENCY: 9.70745 cycles
cpu0_L1D TOTAL     ACCESS:   10243256  HIT:    8488815  MISS:    1754441
cpu0_L1D LOAD      ACCESS:    6408303  HIT:    4668015  MISS:    1740288
cpu0_L1D RFO       ACCESS:    3337576  HIT:    3324517  MISS:      13059
cpu0_L1D PREFETCH  ACCESS:          0  HIT:          0  MISS:          0
cpu0_L1D WRITEBACK ACCESS:          0  HIT:          0  MISS:          0
cpu0_L1D TRANSLATION ACCESS:     497377  HIT:     496283  MISS:       1094
cpu0_L1D PREFETCH  REQUESTED:          0  ISSUED:          0  USEFUL:          0  USELESS:          0
cpu0_L1D AVERAGE MISS LATENCY: 97.8473 cycles
cpu0_L2C TOTAL     ACCESS:    1775591  HIT:      23304  MISS:    1752287
cpu0_L2C LOAD      ACCESS:    1744628  HIT:       5922  MISS:    1738706
cpu0_L2C RFO       ACCESS:      13059  HIT:        137  MISS:      12922
cpu0_L2C PREFETCH  ACCESS:          0  HIT:          0  MISS:          0
cpu0_L2C WRITEBACK ACCESS:      16810  HIT:      16810  MISS:          0
cpu0_L2C TRANSLATION ACCESS:       1094  HIT:        435  MISS:        659
cpu0_L2C PREFETCH  REQUESTED:          0  ISSUED:          0  USEFUL:          0  USELESS:          0
cpu0_L2C AVERAGE MISS LATENCY: 86.4708 cycles
LLC TOTAL     ACCESS:    1768993  HIT:    1497036  MISS:     271957
LLC LOAD      ACCESS:    1738706  HIT:    1482116  MISS:     256590
LLC RFO       ACCESS:      12922  HIT:       2252  MISS:      10670
LLC PREFETCH  ACCESS:          0  HIT:          0  MISS:          0
LLC WRITEBACK ACCESS:      16706  HIT:      12194  MISS:       4512
LLC TRANSLATION ACCESS:        659  HIT:        474  MISS:        185
LLC PREFETCH  REQUESTED:          0  ISSUED:          0  USEFUL:          0  USELESS:          0
LLC AVERAGE MISS LATENCY: 421.798 cycles
Insertion Distribution: 
	LOAD 8421 0 0 0 0 0 0 0 0 0 0 0 0 0 32436 284336 
	RFO 0 0 0 0 0 0 0 0 0 0 0 0 0 0 1372 10361 
	PREF 0 0 0 0 0 0 0 0 0 0 0 0 0 0 0 0 
	WRITEBACK 0 0 0 0 0 0 0 0 0 0 0 0 0 0 0 4592 
	 2 0 0 0 0 0 0 0 0 0 0 0 0 0 65 156 
Total Prefetch Downgrades: 0

DRAM Statistics
 CHANNEL 0
 RQ ROW_BUFFER_HIT:       7376  ROW_BUFFER_MISS:     259985
 DBUS AVG_CONGESTED_CYCLE:    3.98294
 WQ ROW_BUFFER_HIT:       2752  ROW_BUFFER_MISS:       9199  FULL:          0


CPU 0 Branch Prediction Accuracy: 97.6159% MPKI: 7.87238 Average ROB Occupancy at Mispredict: 63.2614
Branch type MPKI
BRANCH_DIRECT_JUMP: 0.00032
BRANCH_INDIRECT: 0.08474
BRANCH_CONDITIONAL: 7.75802
BRANCH_DIRECT_CALL: 0.00068
BRANCH_INDIRECT_CALL: 0.00292
BRANCH_RETURN: 0.0257

