
*** ChampSim Multicore Out-of-Order Simulator ***

Warmup Instructions: 10000000
Simulation Instructions: 100000000
Number of CPUs: 1
Off-chip DRAM Size: 4 GiB Channels: 1 Width: 64-bit Data Rate: 3200 MT/s

VirtualMemory physical capacity: 8588881920 num_ppages: 2096895
VirtualMemory page size: 4096 log2_page_size: 12

CPU 0 runs /datasets/cs240c-wi22-a00-public/data/Assignment2/cactusADM_1495B.trace.xz
CPU 0 Bimodal branch predictor
Basic BTB sets: 1024 ways: 8 indirect buffer size: 4096 RAS size: 64
Initialize SRRIP state
Heartbeat CPU 0 instructions: 10000001 cycles: 3702074 heartbeat IPC: 2.70119 cumulative IPC: 2.70119 (Simulation time: 0 hr 0 min 51 sec) 

Warmup complete CPU 0 instructions: 10000001 cycles: 3702074 (Simulation time: 0 hr 0 min 51 sec) 

Heartbeat CPU 0 instructions: 20000001 cycles: 11050829 heartbeat IPC: 1.36077 cumulative IPC: 1.36077 (Simulation time: 0 hr 2 min 15 sec) 
Heartbeat CPU 0 instructions: 30000003 cycles: 20340405 heartbeat IPC: 1.07648 cumulative IPC: 1.20204 (Simulation time: 0 hr 3 min 41 sec) 
Heartbeat CPU 0 instructions: 40000001 cycles: 29699154 heartbeat IPC: 1.06852 cumulative IPC: 1.15398 (Simulation time: 0 hr 5 min 9 sec) 
Heartbeat CPU 0 instructions: 50000000 cycles: 38207333 heartbeat IPC: 1.17534 cumulative IPC: 1.15924 (Simulation time: 0 hr 6 min 32 sec) 
Heartbeat CPU 0 instructions: 60000003 cycles: 44874602 heartbeat IPC: 1.49986 cumulative IPC: 1.2144 (Simulation time: 0 hr 7 min 45 sec) 
Heartbeat CPU 0 instructions: 70000000 cycles: 52563698 heartbeat IPC: 1.30054 cumulative IPC: 1.22796 (Simulation time: 0 hr 9 min 3 sec) 
Heartbeat CPU 0 instructions: 80000001 cycles: 61029631 heartbeat IPC: 1.1812 cumulative IPC: 1.22105 (Simulation time: 0 hr 10 min 25 sec) 
Heartbeat CPU 0 instructions: 90000002 cycles: 69536417 heartbeat IPC: 1.17553 cumulative IPC: 1.21517 (Simulation time: 0 hr 11 min 44 sec) 
Heartbeat CPU 0 instructions: 100000002 cycles: 77909176 heartbeat IPC: 1.19435 cumulative IPC: 1.21282 (Simulation time: 0 hr 13 min 4 sec) 
Heartbeat CPU 0 instructions: 110000001 cycles: 83722628 heartbeat IPC: 1.72015 cumulative IPC: 1.24968 (Simulation time: 0 hr 14 min 12 sec) 
Finished CPU 0 instructions: 100000000 cycles: 80020554 cumulative IPC: 1.24968 (Simulation time: 0 hr 14 min 12 sec) 

ChampSim completed all CPUs

Region of Interest Statistics

CPU 0 cumulative IPC: 1.24968 instructions: 100000000 cycles: 80020554
cpu0_DTLB TOTAL     ACCESS:   21443613  HIT:   19670733  MISS:    1772880
cpu0_DTLB LOAD      ACCESS:   17641192  HIT:   16432163  MISS:    1209029
cpu0_DTLB RFO       ACCESS:    3802421  HIT:    3238570  MISS:     563851
cpu0_DTLB PREFETCH  ACCESS:          0  HIT:          0  MISS:          0
cpu0_DTLB WRITEBACK ACCESS:          0  HIT:          0  MISS:          0
cpu0_DTLB TRANSLATION ACCESS:          0  HIT:          0  MISS:          0
cpu0_DTLB PREFETCH  REQUESTED:          0  ISSUED:          0  USEFUL:          0  USELESS:          0
cpu0_DTLB AVERAGE MISS LATENCY: 17.4135 cycles
cpu0_ITLB TOTAL     ACCESS:    1619585  HIT:    1619585  MISS:          0
cpu0_ITLB LOAD      ACCESS:    1619585  HIT:    1619585  MISS:          0
cpu0_ITLB RFO       ACCESS:          0  HIT:          0  MISS:          0
cpu0_ITLB PREFETCH  ACCESS:          0  HIT:          0  MISS:          0
cpu0_ITLB WRITEBACK ACCESS:          0  HIT:          0  MISS:          0
cpu0_ITLB TRANSLATION ACCESS:          0  HIT:          0  MISS:          0
cpu0_ITLB PREFETCH  REQUESTED:          0  ISSUED:          0  USEFUL:          0  USELESS:          0
cpu0_ITLB AVERAGE MISS LATENCY: -nan cycles
cpu0_L1I TOTAL     ACCESS:    8425991  HIT:    8425991  MISS:          0
cpu0_L1I LOAD      ACCESS:    8425991  HIT:    8425991  MISS:          0
cpu0_L1I RFO       ACCESS:          0  HIT:          0  MISS:          0
cpu0_L1I PREFETCH  ACCESS:          0  HIT:          0  MISS:          0
cpu0_L1I WRITEBACK ACCESS:          0  HIT:          0  MISS:          0
cpu0_L1I TRANSLATION ACCESS:          0  HIT:          0  MISS:          0
cpu0_L1I PREFETCH  REQUESTED:          0  ISSUED:          0  USEFUL:          0  USELESS:          0
cpu0_L1I AVERAGE MISS LATENCY: -nan cycles
cpu0_STLB TOTAL     ACCESS:    1772880  HIT:     909366  MISS:     863514
cpu0_STLB LOAD      ACCESS:    1209029  HIT:     650183  MISS:     558846
cpu0_STLB RFO       ACCESS:     563851  HIT:     259183  MISS:     304668
cpu0_STLB PREFETCH  ACCESS:          0  HIT:          0  MISS:          0
cpu0_STLB WRITEBACK ACCESS:          0  HIT:          0  MISS:          0
cpu0_STLB TRANSLATION ACCESS:          0  HIT:          0  MISS:          0
cpu0_STLB PREFETCH  REQUESTED:          0  ISSUED:          0  USEFUL:          0  USELESS:          0
cpu0_STLB AVERAGE MISS LATENCY: 17.1487 cycles
cpu0_L1D TOTAL     ACCESS:   37454531  HIT:   36166428  MISS:    1288103
cpu0_L1D LOAD      ACCESS:   25694627  HIT:   24658655  MISS:    1035972
cpu0_L1D RFO       ACCESS:   10897033  HIT:   10651801  MISS:     245232
cpu0_L1D PREFETCH  ACCESS:          0  HIT:          0  MISS:          0
cpu0_L1D WRITEBACK ACCESS:          0  HIT:          0  MISS:          0
cpu0_L1D TRANSLATION ACCESS:     862871  HIT:     855972  MISS:       6899
cpu0_L1D PREFETCH  REQUESTED:          0  ISSUED:          0  USEFUL:          0  USELESS:          0
cpu0_L1D AVERAGE MISS LATENCY: 291.731 cycles
cpu0_L2C TOTAL     ACCESS:    1536885  HIT:     676723  MISS:     860162
cpu0_L2C LOAD      ACCESS:    1035972  HIT:     421551  MISS:     614421
cpu0_L2C RFO       ACCESS:     245232  HIT:          0  MISS:     245232
cpu0_L2C PREFETCH  ACCESS:          0  HIT:          0  MISS:          0
cpu0_L2C WRITEBACK ACCESS:     248782  HIT:     248593  MISS:        189
cpu0_L2C TRANSLATION ACCESS:       6899  HIT:       6579  MISS:        320
cpu0_L2C PREFETCH  REQUESTED:          0  ISSUED:          0  USEFUL:          0  USELESS:          0
cpu0_L2C AVERAGE MISS LATENCY: 420.379 cycles
LLC TOTAL     ACCESS:    1105581  HIT:     332580  MISS:     773001
LLC LOAD      ACCESS:     614421  HIT:     185339  MISS:     429082
LLC RFO       ACCESS:     245232  HIT:      60184  MISS:     185048
LLC PREFETCH  ACCESS:          0  HIT:          0  MISS:          0
LLC WRITEBACK ACCESS:     245608  HIT:      86989  MISS:     158619
LLC TRANSLATION ACCESS:        320  HIT:         68  MISS:        252
LLC PREFETCH  REQUESTED:          0  ISSUED:          0  USEFUL:          0  USELESS:          0
LLC AVERAGE MISS LATENCY: 444.415 cycles
Insertion Distribution: 
	LOAD 18038 0 79751 399384 
	RFO 11586 0 37497 166859 
	PREF 0 0 0 0 
	WRITEBACK 0 0 0 163819 
	 0 0 76 226 
Total Prefetch Downgrades: 0

DRAM Statistics
 CHANNEL 0
 RQ ROW_BUFFER_HIT:       5677  ROW_BUFFER_MISS:     608688
 DBUS AVG_CONGESTED_CYCLE:     3.9766
 WQ ROW_BUFFER_HIT:      11439  ROW_BUFFER_MISS:     183853  FULL:        304


CPU 0 Branch Prediction Accuracy: 97.8411% MPKI: 0.04284 Average ROB Occupancy at Mispredict: 285.467
Branch type MPKI
BRANCH_DIRECT_JUMP: 0
BRANCH_INDIRECT: 0
BRANCH_CONDITIONAL: 0.04284
BRANCH_DIRECT_CALL: 0
BRANCH_INDIRECT_CALL: 0
BRANCH_RETURN: 0

