
*** ChampSim Multicore Out-of-Order Simulator ***

Warmup Instructions: 10000000
Simulation Instructions: 100000000
Number of CPUs: 1
Off-chip DRAM Size: 4 GiB Channels: 1 Width: 64-bit Data Rate: 3200 MT/s

VirtualMemory physical capacity: 8588881920 num_ppages: 2096895
VirtualMemory page size: 4096 log2_page_size: 12

CPU 0 runs /datasets/cs240c-wi22-a00-public/data/Assignment2/milc_744B.trace.xz
CPU 0 Bimodal branch predictor
Basic BTB sets: 1024 ways: 8 indirect buffer size: 4096 RAS size: 64
Initialize SRRIP state
Heartbeat CPU 0 instructions: 10000000 cycles: 2597395 heartbeat IPC: 3.85001 cumulative IPC: 3.85001 (Simulation time: 0 hr 0 min 34 sec) 

Warmup complete CPU 0 instructions: 10000005 cycles: 2597401 (Simulation time: 0 hr 0 min 34 sec) 

Heartbeat CPU 0 instructions: 20000003 cycles: 16273438 heartbeat IPC: 0.731206 cumulative IPC: 0.731206 (Simulation time: 0 hr 1 min 38 sec) 
Heartbeat CPU 0 instructions: 30000000 cycles: 30006203 heartbeat IPC: 0.728185 cumulative IPC: 0.729692 (Simulation time: 0 hr 2 min 43 sec) 
Heartbeat CPU 0 instructions: 40000001 cycles: 43758678 heartbeat IPC: 0.727142 cumulative IPC: 0.72884 (Simulation time: 0 hr 3 min 48 sec) 
Heartbeat CPU 0 instructions: 50000000 cycles: 57496602 heartbeat IPC: 0.727912 cumulative IPC: 0.728608 (Simulation time: 0 hr 4 min 52 sec) 
Heartbeat CPU 0 instructions: 60000000 cycles: 71224232 heartbeat IPC: 0.728458 cumulative IPC: 0.728578 (Simulation time: 0 hr 5 min 55 sec) 
Heartbeat CPU 0 instructions: 70000002 cycles: 84956516 heartbeat IPC: 0.728211 cumulative IPC: 0.728517 (Simulation time: 0 hr 6 min 53 sec) 
Heartbeat CPU 0 instructions: 80000003 cycles: 98655835 heartbeat IPC: 0.729963 cumulative IPC: 0.728723 (Simulation time: 0 hr 7 min 49 sec) 
Heartbeat CPU 0 instructions: 90000002 cycles: 112342988 heartbeat IPC: 0.730612 cumulative IPC: 0.728959 (Simulation time: 0 hr 8 min 50 sec) 
Heartbeat CPU 0 instructions: 100000002 cycles: 146348420 heartbeat IPC: 0.294071 cumulative IPC: 0.626082 (Simulation time: 0 hr 14 min 4 sec) 
Heartbeat CPU 0 instructions: 110000004 cycles: 156622749 heartbeat IPC: 0.9733 cumulative IPC: 0.649244 (Simulation time: 0 hr 14 min 55 sec) 
Finished CPU 0 instructions: 100000004 cycles: 154025349 cumulative IPC: 0.649244 (Simulation time: 0 hr 14 min 55 sec) 

ChampSim completed all CPUs

Region of Interest Statistics

CPU 0 cumulative IPC: 0.649244 instructions: 100000004 cycles: 154025349
cpu0_DTLB TOTAL     ACCESS:   13559601  HIT:   13424817  MISS:     134784
cpu0_DTLB LOAD      ACCESS:   10515299  HIT:   10387142  MISS:     128157
cpu0_DTLB RFO       ACCESS:    3044302  HIT:    3037675  MISS:       6627
cpu0_DTLB PREFETCH  ACCESS:          0  HIT:          0  MISS:          0
cpu0_DTLB WRITEBACK ACCESS:          0  HIT:          0  MISS:          0
cpu0_DTLB TRANSLATION ACCESS:          0  HIT:          0  MISS:          0
cpu0_DTLB PREFETCH  REQUESTED:          0  ISSUED:          0  USEFUL:          0  USELESS:          0
cpu0_DTLB AVERAGE MISS LATENCY: 147.419 cycles
cpu0_ITLB TOTAL     ACCESS:    8135560  HIT:    8135555  MISS:          5
cpu0_ITLB LOAD      ACCESS:    8135560  HIT:    8135555  MISS:          5
cpu0_ITLB RFO       ACCESS:          0  HIT:          0  MISS:          0
cpu0_ITLB PREFETCH  ACCESS:          0  HIT:          0  MISS:          0
cpu0_ITLB WRITEBACK ACCESS:          0  HIT:          0  MISS:          0
cpu0_ITLB TRANSLATION ACCESS:          0  HIT:          0  MISS:          0
cpu0_ITLB PREFETCH  REQUESTED:          0  ISSUED:          0  USEFUL:          0  USELESS:          0
cpu0_ITLB AVERAGE MISS LATENCY: 219.2 cycles
cpu0_L1I TOTAL     ACCESS:     365356  HIT:     365309  MISS:         47
cpu0_L1I LOAD      ACCESS:     365356  HIT:     365309  MISS:         47
cpu0_L1I RFO       ACCESS:          0  HIT:          0  MISS:          0
cpu0_L1I PREFETCH  ACCESS:          0  HIT:          0  MISS:          0
cpu0_L1I WRITEBACK ACCESS:          0  HIT:          0  MISS:          0
cpu0_L1I TRANSLATION ACCESS:          0  HIT:          0  MISS:          0
cpu0_L1I PREFETCH  REQUESTED:          0  ISSUED:          0  USEFUL:          0  USELESS:          0
cpu0_L1I AVERAGE MISS LATENCY: 305.447 cycles
cpu0_STLB TOTAL     ACCESS:     134789  HIT:       2588  MISS:     132201
cpu0_STLB LOAD      ACCESS:     128162  HIT:       2578  MISS:     125584
cpu0_STLB RFO       ACCESS:       6627  HIT:         10  MISS:       6617
cpu0_STLB PREFETCH  ACCESS:          0  HIT:          0  MISS:          0
cpu0_STLB WRITEBACK ACCESS:          0  HIT:          0  MISS:          0
cpu0_STLB TRANSLATION ACCESS:          0  HIT:          0  MISS:          0
cpu0_STLB PREFETCH  REQUESTED:          0  ISSUED:          0  USEFUL:          0  USELESS:          0
cpu0_STLB AVERAGE MISS LATENCY: 141.121 cycles
cpu0_L1D TOTAL     ACCESS:   13086587  HIT:   11341650  MISS:    1744937
cpu0_L1D LOAD      ACCESS:    6797516  HIT:    5476263  MISS:    1321253
cpu0_L1D RFO       ACCESS:    6158135  HIT:    5734835  MISS:     423300
cpu0_L1D PREFETCH  ACCESS:          0  HIT:          0  MISS:          0
cpu0_L1D WRITEBACK ACCESS:          0  HIT:          0  MISS:          0
cpu0_L1D TRANSLATION ACCESS:     130936  HIT:     130552  MISS:        384
cpu0_L1D PREFETCH  REQUESTED:          0  ISSUED:          0  USEFUL:          0  USELESS:          0
cpu0_L1D AVERAGE MISS LATENCY: 417.133 cycles
cpu0_L2C TOTAL     ACCESS:    2446394  HIT:     701423  MISS:    1744971
cpu0_L2C LOAD      ACCESS:    1321300  HIT:          0  MISS:    1321300
cpu0_L2C RFO       ACCESS:     423300  HIT:          0  MISS:     423300
cpu0_L2C PREFETCH  ACCESS:          0  HIT:          0  MISS:          0
cpu0_L2C WRITEBACK ACCESS:     701410  HIT:     701404  MISS:          6
cpu0_L2C TRANSLATION ACCESS:        384  HIT:         19  MISS:        365
cpu0_L2C PREFETCH  REQUESTED:          0  ISSUED:          0  USEFUL:          0  USELESS:          0
cpu0_L2C AVERAGE MISS LATENCY: 406.065 cycles
LLC TOTAL     ACCESS:    2446271  HIT:      54208  MISS:    2392063
LLC LOAD      ACCESS:    1321300  HIT:       1156  MISS:    1320144
LLC RFO       ACCESS:     423300  HIT:       3619  MISS:     419681
LLC PREFETCH  ACCESS:          0  HIT:          0  MISS:          0
LLC WRITEBACK ACCESS:     701306  HIT:      49123  MISS:     652183
LLC TRANSLATION ACCESS:        365  HIT:        310  MISS:         55
LLC PREFETCH  REQUESTED:          0  ISSUED:          0  USEFUL:          0  USELESS:          0
LLC AVERAGE MISS LATENCY: 280.899 cycles
Insertion Distribution: 
	LOAD 1056 0 201425 1257865 
	RFO 0 0 29520 390163 
	PREF 0 0 0 0 
	WRITEBACK 0 0 0 658185 
	 0 0 25 46 
Total Prefetch Downgrades: 0

DRAM Statistics
 CHANNEL 0
 RQ ROW_BUFFER_HIT:     183413  ROW_BUFFER_MISS:    1556463
 DBUS AVG_CONGESTED_CYCLE:    3.95628
 WQ ROW_BUFFER_HIT:      85648  ROW_BUFFER_MISS:     608216  FULL:          0


CPU 0 Branch Prediction Accuracy: 77.9348% MPKI: 4.47835 Average ROB Occupancy at Mispredict: 303.059
Branch type MPKI
BRANCH_DIRECT_JUMP: 5e-05
BRANCH_INDIRECT: 0
BRANCH_CONDITIONAL: 4.47814
BRANCH_DIRECT_CALL: 8e-05
BRANCH_INDIRECT_CALL: 0
BRANCH_RETURN: 8e-05

