
*** ChampSim Multicore Out-of-Order Simulator ***

Warmup Instructions: 10000000
Simulation Instructions: 100000000
Number of CPUs: 1
Off-chip DRAM Size: 4 GiB Channels: 1 Width: 64-bit Data Rate: 3200 MT/s

VirtualMemory physical capacity: 8588881920 num_ppages: 2096895
VirtualMemory page size: 4096 log2_page_size: 12

CPU 0 runs /datasets/cs240c-wi22-a00-public/data/Assignment2/bzip2_259B.trace.xz
CPU 0 Bimodal branch predictor
Basic BTB sets: 1024 ways: 8 indirect buffer size: 4096 RAS size: 64
Initialize SRRIP state
Heartbeat CPU 0 instructions: 10000002 cycles: 2535454 heartbeat IPC: 3.94407 cumulative IPC: 3.94407 (Simulation time: 0 hr 0 min 28 sec) 

Warmup complete CPU 0 instructions: 10000002 cycles: 2535454 (Simulation time: 0 hr 0 min 28 sec) 

Heartbeat CPU 0 instructions: 20000003 cycles: 9210998 heartbeat IPC: 1.49801 cumulative IPC: 1.49801 (Simulation time: 0 hr 1 min 30 sec) 
Heartbeat CPU 0 instructions: 30000002 cycles: 14715083 heartbeat IPC: 1.81683 cumulative IPC: 1.64209 (Simulation time: 0 hr 2 min 19 sec) 
Heartbeat CPU 0 instructions: 40000003 cycles: 21308596 heartbeat IPC: 1.51664 cumulative IPC: 1.59803 (Simulation time: 0 hr 2 min 56 sec) 
Heartbeat CPU 0 instructions: 50000003 cycles: 29512696 heartbeat IPC: 1.2189 cumulative IPC: 1.48273 (Simulation time: 0 hr 3 min 25 sec) 
Heartbeat CPU 0 instructions: 60000001 cycles: 37385468 heartbeat IPC: 1.2702 cumulative IPC: 1.43472 (Simulation time: 0 hr 3 min 54 sec) 
Heartbeat CPU 0 instructions: 70000004 cycles: 43977491 heartbeat IPC: 1.51699 cumulative IPC: 1.44781 (Simulation time: 0 hr 4 min 46 sec) 
Heartbeat CPU 0 instructions: 80000002 cycles: 50630169 heartbeat IPC: 1.50315 cumulative IPC: 1.45546 (Simulation time: 0 hr 5 min 35 sec) 
Heartbeat CPU 0 instructions: 90000001 cycles: 56837177 heartbeat IPC: 1.61108 cumulative IPC: 1.47325 (Simulation time: 0 hr 6 min 17 sec) 
Heartbeat CPU 0 instructions: 100000000 cycles: 65235575 heartbeat IPC: 1.1907 cumulative IPC: 1.4354 (Simulation time: 0 hr 6 min 45 sec) 
Heartbeat CPU 0 instructions: 110000000 cycles: 73219810 heartbeat IPC: 1.25247 cumulative IPC: 1.41474 (Simulation time: 0 hr 7 min 12 sec) 
Finished CPU 0 instructions: 100000003 cycles: 70684361 cumulative IPC: 1.41474 (Simulation time: 0 hr 7 min 12 sec) 

ChampSim completed all CPUs

Region of Interest Statistics

CPU 0 cumulative IPC: 1.41474 instructions: 100000003 cycles: 70684361
cpu0_DTLB TOTAL     ACCESS:   18627751  HIT:   17966941  MISS:     660810
cpu0_DTLB LOAD      ACCESS:    9570020  HIT:    8913151  MISS:     656869
cpu0_DTLB RFO       ACCESS:    9057731  HIT:    9053790  MISS:       3941
cpu0_DTLB PREFETCH  ACCESS:          0  HIT:          0  MISS:          0
cpu0_DTLB WRITEBACK ACCESS:          0  HIT:          0  MISS:          0
cpu0_DTLB TRANSLATION ACCESS:          0  HIT:          0  MISS:          0
cpu0_DTLB PREFETCH  REQUESTED:          0  ISSUED:          0  USEFUL:          0  USELESS:          0
cpu0_DTLB AVERAGE MISS LATENCY: 9.26342 cycles
cpu0_ITLB TOTAL     ACCESS:    6767728  HIT:    6767725  MISS:          3
cpu0_ITLB LOAD      ACCESS:    6767728  HIT:    6767725  MISS:          3
cpu0_ITLB RFO       ACCESS:          0  HIT:          0  MISS:          0
cpu0_ITLB PREFETCH  ACCESS:          0  HIT:          0  MISS:          0
cpu0_ITLB WRITEBACK ACCESS:          0  HIT:          0  MISS:          0
cpu0_ITLB TRANSLATION ACCESS:          0  HIT:          0  MISS:          0
cpu0_ITLB PREFETCH  REQUESTED:          0  ISSUED:          0  USEFUL:          0  USELESS:          0
cpu0_ITLB AVERAGE MISS LATENCY: 395.333 cycles
cpu0_L1I TOTAL     ACCESS:      58690  HIT:      58551  MISS:        139
cpu0_L1I LOAD      ACCESS:      58690  HIT:      58551  MISS:        139
cpu0_L1I RFO       ACCESS:          0  HIT:          0  MISS:          0
cpu0_L1I PREFETCH  ACCESS:          0  HIT:          0  MISS:          0
cpu0_L1I WRITEBACK ACCESS:          0  HIT:          0  MISS:          0
cpu0_L1I TRANSLATION ACCESS:          0  HIT:          0  MISS:          0
cpu0_L1I PREFETCH  REQUESTED:          0  ISSUED:          0  USEFUL:          0  USELESS:          0
cpu0_L1I AVERAGE MISS LATENCY: 222.892 cycles
cpu0_STLB TOTAL     ACCESS:     660813  HIT:     659993  MISS:        820
cpu0_STLB LOAD      ACCESS:     656872  HIT:     656600  MISS:        272
cpu0_STLB RFO       ACCESS:       3941  HIT:       3393  MISS:        548
cpu0_STLB PREFETCH  ACCESS:          0  HIT:          0  MISS:          0
cpu0_STLB WRITEBACK ACCESS:          0  HIT:          0  MISS:          0
cpu0_STLB TRANSLATION ACCESS:          0  HIT:          0  MISS:          0
cpu0_STLB PREFETCH  REQUESTED:          0  ISSUED:          0  USEFUL:          0  USELESS:          0
cpu0_STLB AVERAGE MISS LATENCY: 213.627 cycles
cpu0_L1D TOTAL     ACCESS:   20310249  HIT:   19304695  MISS:    1005554
cpu0_L1D LOAD      ACCESS:   10357762  HIT:    9471406  MISS:     886356
cpu0_L1D RFO       ACCESS:    9951670  HIT:    9832791  MISS:     118879
cpu0_L1D PREFETCH  ACCESS:          0  HIT:          0  MISS:          0
cpu0_L1D WRITEBACK ACCESS:          0  HIT:          0  MISS:          0
cpu0_L1D TRANSLATION ACCESS:        817  HIT:        498  MISS:        319
cpu0_L1D PREFETCH  REQUESTED:          0  ISSUED:          0  USEFUL:          0  USELESS:          0
cpu0_L1D AVERAGE MISS LATENCY: 85.1158 cycles
cpu0_L2C TOTAL     ACCESS:    1222681  HIT:     525067  MISS:     697614
cpu0_L2C LOAD      ACCESS:     886492  HIT:     288906  MISS:     597586
cpu0_L2C RFO       ACCESS:     118879  HIT:      18905  MISS:      99974
cpu0_L2C PREFETCH  ACCESS:          0  HIT:          0  MISS:          0
cpu0_L2C WRITEBACK ACCESS:     216991  HIT:     216955  MISS:         36
cpu0_L2C TRANSLATION ACCESS:        319  HIT:        301  MISS:         18
cpu0_L2C PREFETCH  REQUESTED:          0  ISSUED:          0  USEFUL:          0  USELESS:          0
cpu0_L2C AVERAGE MISS LATENCY: 106.869 cycles
LLC TOTAL     ACCESS:     886577  HIT:     604882  MISS:     281695
LLC LOAD      ACCESS:     597586  HIT:     405381  MISS:     192205
LLC RFO       ACCESS:      99974  HIT:      42536  MISS:      57438
LLC PREFETCH  ACCESS:          0  HIT:          0  MISS:          0
LLC WRITEBACK ACCESS:     188999  HIT:     156963  MISS:      32036
LLC TRANSLATION ACCESS:         18  HIT:          2  MISS:         16
LLC PREFETCH  REQUESTED:          0  ISSUED:          0  USEFUL:          0  USELESS:          0
LLC AVERAGE MISS LATENCY: 212.653 cycles
Insertion Distribution: 
	LOAD 42131 0 80089 70567 
	RFO 0 0 42077 31319 
	PREF 0 0 0 0 
	WRITEBACK 0 0 0 32036 
	 0 0 17 10 
Total Prefetch Downgrades: 0

DRAM Statistics
 CHANNEL 0
 RQ ROW_BUFFER_HIT:      33539  ROW_BUFFER_MISS:     215931
 DBUS AVG_CONGESTED_CYCLE:    3.95282
 WQ ROW_BUFFER_HIT:      13936  ROW_BUFFER_MISS:     110297  FULL:          0


CPU 0 Branch Prediction Accuracy: 93.3658% MPKI: 11.2167 Average ROB Occupancy at Mispredict: 31.7423
Branch type MPKI
BRANCH_DIRECT_JUMP: 0.0006
BRANCH_INDIRECT: 0.01713
BRANCH_CONDITIONAL: 11.1989
BRANCH_DIRECT_CALL: 5e-05
BRANCH_INDIRECT_CALL: 0
BRANCH_RETURN: 6e-05

