
*** ChampSim Multicore Out-of-Order Simulator ***

Warmup Instructions: 10000000
Simulation Instructions: 100000000
Number of CPUs: 1
Off-chip DRAM Size: 4 GiB Channels: 1 Width: 64-bit Data Rate: 3200 MT/s

VirtualMemory physical capacity: 8588881920 num_ppages: 2096895
VirtualMemory page size: 4096 log2_page_size: 12

CPU 0 runs /datasets/cs240c-wi22-a00-public/data/Assignment2/leslie3d_1186B.trace.xz
CPU 0 Bimodal branch predictor
Basic BTB sets: 1024 ways: 8 indirect buffer size: 4096 RAS size: 64
Initialize SRRIP state
Heartbeat CPU 0 instructions: 10000000 cycles: 4308767 heartbeat IPC: 2.32085 cumulative IPC: 2.32085 (Simulation time: 0 hr 0 min 59 sec) 

Warmup complete CPU 0 instructions: 10000005 cycles: 4308768 (Simulation time: 0 hr 0 min 59 sec) 

Heartbeat CPU 0 instructions: 20000000 cycles: 18468061 heartbeat IPC: 0.70625 cumulative IPC: 0.70625 (Simulation time: 0 hr 2 min 46 sec) 
Heartbeat CPU 0 instructions: 30000000 cycles: 32682230 heartbeat IPC: 0.703523 cumulative IPC: 0.704884 (Simulation time: 0 hr 4 min 31 sec) 
Heartbeat CPU 0 instructions: 40000004 cycles: 46980277 heartbeat IPC: 0.699396 cumulative IPC: 0.703045 (Simulation time: 0 hr 6 min 14 sec) 
Heartbeat CPU 0 instructions: 50000002 cycles: 67600145 heartbeat IPC: 0.484969 cumulative IPC: 0.631998 (Simulation time: 0 hr 8 min 14 sec) 
Heartbeat CPU 0 instructions: 60000000 cycles: 107559026 heartbeat IPC: 0.250257 cumulative IPC: 0.48426 (Simulation time: 0 hr 11 min 41 sec) 
Heartbeat CPU 0 instructions: 70000000 cycles: 136145550 heartbeat IPC: 0.349815 cumulative IPC: 0.455108 (Simulation time: 0 hr 14 min 29 sec) 
Heartbeat CPU 0 instructions: 80000003 cycles: 146475989 heartbeat IPC: 0.968013 cumulative IPC: 0.492378 (Simulation time: 0 hr 16 min 0 sec) 
Heartbeat CPU 0 instructions: 90000002 cycles: 156658453 heartbeat IPC: 0.98208 cumulative IPC: 0.525108 (Simulation time: 0 hr 17 min 27 sec) 
Heartbeat CPU 0 instructions: 100000000 cycles: 166822129 heartbeat IPC: 0.983896 cumulative IPC: 0.553801 (Simulation time: 0 hr 18 min 54 sec) 
Heartbeat CPU 0 instructions: 110000000 cycles: 177043215 heartbeat IPC: 0.97837 cumulative IPC: 0.578923 (Simulation time: 0 hr 20 min 24 sec) 
Finished CPU 0 instructions: 100000000 cycles: 172734448 cumulative IPC: 0.578923 (Simulation time: 0 hr 20 min 24 sec) 

ChampSim completed all CPUs

Region of Interest Statistics

CPU 0 cumulative IPC: 0.578923 instructions: 100000000 cycles: 172734448
cpu0_DTLB TOTAL     ACCESS:   27954216  HIT:   27856592  MISS:      97624
cpu0_DTLB LOAD      ACCESS:   23285570  HIT:   23199697  MISS:      85873
cpu0_DTLB RFO       ACCESS:    4668646  HIT:    4656895  MISS:      11751
cpu0_DTLB PREFETCH  ACCESS:          0  HIT:          0  MISS:          0
cpu0_DTLB WRITEBACK ACCESS:          0  HIT:          0  MISS:          0
cpu0_DTLB TRANSLATION ACCESS:          0  HIT:          0  MISS:          0
cpu0_DTLB PREFETCH  REQUESTED:          0  ISSUED:          0  USEFUL:          0  USELESS:          0
cpu0_DTLB AVERAGE MISS LATENCY: 52.6684 cycles
cpu0_ITLB TOTAL     ACCESS:    2918162  HIT:    2918149  MISS:         13
cpu0_ITLB LOAD      ACCESS:    2918162  HIT:    2918149  MISS:         13
cpu0_ITLB RFO       ACCESS:          0  HIT:          0  MISS:          0
cpu0_ITLB PREFETCH  ACCESS:          0  HIT:          0  MISS:          0
cpu0_ITLB WRITEBACK ACCESS:          0  HIT:          0  MISS:          0
cpu0_ITLB TRANSLATION ACCESS:          0  HIT:          0  MISS:          0
cpu0_ITLB PREFETCH  REQUESTED:          0  ISSUED:          0  USEFUL:          0  USELESS:          0
cpu0_ITLB AVERAGE MISS LATENCY: 218.308 cycles
cpu0_L1I TOTAL     ACCESS:    1737382  HIT:    1737002  MISS:        380
cpu0_L1I LOAD      ACCESS:    1737382  HIT:    1737002  MISS:        380
cpu0_L1I RFO       ACCESS:          0  HIT:          0  MISS:          0
cpu0_L1I PREFETCH  ACCESS:          0  HIT:          0  MISS:          0
cpu0_L1I WRITEBACK ACCESS:          0  HIT:          0  MISS:          0
cpu0_L1I TRANSLATION ACCESS:          0  HIT:          0  MISS:          0
cpu0_L1I PREFETCH  REQUESTED:          0  ISSUED:          0  USEFUL:          0  USELESS:          0
cpu0_L1I AVERAGE MISS LATENCY: 341.071 cycles
cpu0_STLB TOTAL     ACCESS:      97637  HIT:      70235  MISS:      27402
cpu0_STLB LOAD      ACCESS:      85886  HIT:      63159  MISS:      22727
cpu0_STLB RFO       ACCESS:      11751  HIT:       7076  MISS:       4675
cpu0_STLB PREFETCH  ACCESS:          0  HIT:          0  MISS:          0
cpu0_STLB WRITEBACK ACCESS:          0  HIT:          0  MISS:          0
cpu0_STLB TRANSLATION ACCESS:          0  HIT:          0  MISS:          0
cpu0_STLB PREFETCH  REQUESTED:          0  ISSUED:          0  USEFUL:          0  USELESS:          0
cpu0_STLB AVERAGE MISS LATENCY: 155.62 cycles
cpu0_L1D TOTAL     ACCESS:   26948689  HIT:   23045669  MISS:    3903020
cpu0_L1D LOAD      ACCESS:   17746017  HIT:   14562030  MISS:    3183987
cpu0_L1D RFO       ACCESS:    9178108  HIT:    8462518  MISS:     715590
cpu0_L1D PREFETCH  ACCESS:          0  HIT:          0  MISS:          0
cpu0_L1D WRITEBACK ACCESS:          0  HIT:          0  MISS:          0
cpu0_L1D TRANSLATION ACCESS:      24564  HIT:      21121  MISS:       3443
cpu0_L1D PREFETCH  REQUESTED:          0  ISSUED:          0  USEFUL:          0  USELESS:          0
cpu0_L1D AVERAGE MISS LATENCY: 393.571 cycles
cpu0_L2C TOTAL     ACCESS:    4956623  HIT:    2399361  MISS:    2557262
cpu0_L2C LOAD      ACCESS:    3184316  HIT:    1037145  MISS:    2147171
cpu0_L2C RFO       ACCESS:     715287  HIT:     307613  MISS:     407674
cpu0_L2C PREFETCH  ACCESS:          0  HIT:          0  MISS:          0
cpu0_L2C WRITEBACK ACCESS:    1053577  HIT:    1051370  MISS:       2207
cpu0_L2C TRANSLATION ACCESS:       3443  HIT:       3233  MISS:        210
cpu0_L2C PREFETCH  REQUESTED:          0  ISSUED:          0  USEFUL:          0  USELESS:          0
cpu0_L2C AVERAGE MISS LATENCY: 583.897 cycles
LLC TOTAL     ACCESS:    3217400  HIT:     764727  MISS:    2452673
LLC LOAD      ACCESS:    2147167  HIT:     438980  MISS:    1708187
LLC RFO       ACCESS:     407663  HIT:     115950  MISS:     291713
LLC PREFETCH  ACCESS:          0  HIT:          0  MISS:          0
LLC WRITEBACK ACCESS:     662360  HIT:     209603  MISS:     452757
LLC TRANSLATION ACCESS:        210  HIT:        194  MISS:         16
LLC PREFETCH  REQUESTED:          0  ISSUED:          0  USEFUL:          0  USELESS:          0
LLC AVERAGE MISS LATENCY: 586.874 cycles
Insertion Distribution: 
	LOAD 114936 0 267830 1495204 
	RFO 1177 0 53476 241049 
	PREF 0 0 0 0 
	WRITEBACK 0 0 0 470903 
	 1 0 33 1 
Total Prefetch Downgrades: 0

DRAM Statistics
 CHANNEL 0
 RQ ROW_BUFFER_HIT:     215855  ROW_BUFFER_MISS:    1784002
 DBUS AVG_CONGESTED_CYCLE:    3.95674
 WQ ROW_BUFFER_HIT:      37603  ROW_BUFFER_MISS:     492306  FULL:      21804


CPU 0 Branch Prediction Accuracy: 96.8384% MPKI: 1.47634 Average ROB Occupancy at Mispredict: 312.129
Branch type MPKI
BRANCH_DIRECT_JUMP: 0.00016
BRANCH_INDIRECT: 0
BRANCH_CONDITIONAL: 1.47504
BRANCH_DIRECT_CALL: 0.00057
BRANCH_INDIRECT_CALL: 0
BRANCH_RETURN: 0.00057

