
*** ChampSim Multicore Out-of-Order Simulator ***

Warmup Instructions: 10000000
Simulation Instructions: 100000000
Number of CPUs: 1
Off-chip DRAM Size: 4 GiB Channels: 1 Width: 64-bit Data Rate: 3200 MT/s

VirtualMemory physical capacity: 8588881920 num_ppages: 2096895
VirtualMemory page size: 4096 log2_page_size: 12

CPU 0 runs /datasets/cs240c-wi22-a00-public/data/Assignment2/leslie3d_1116B.trace.xz
CPU 0 Bimodal branch predictor
Basic BTB sets: 1024 ways: 8 indirect buffer size: 4096 RAS size: 64
Initialize SRRIP state
Heartbeat CPU 0 instructions: 10000000 cycles: 3692431 heartbeat IPC: 2.70824 cumulative IPC: 2.70824 (Simulation time: 0 hr 0 min 56 sec) 

Warmup complete CPU 0 instructions: 10000005 cycles: 3692432 (Simulation time: 0 hr 0 min 56 sec) 

Heartbeat CPU 0 instructions: 20000000 cycles: 13895410 heartbeat IPC: 0.980106 cumulative IPC: 0.980106 (Simulation time: 0 hr 2 min 40 sec) 
Heartbeat CPU 0 instructions: 30000000 cycles: 24421262 heartbeat IPC: 0.950042 cumulative IPC: 0.96484 (Simulation time: 0 hr 4 min 24 sec) 
Heartbeat CPU 0 instructions: 40000003 cycles: 36946254 heartbeat IPC: 0.798404 cumulative IPC: 0.902152 (Simulation time: 0 hr 6 min 15 sec) 
Heartbeat CPU 0 instructions: 50000000 cycles: 57699930 heartbeat IPC: 0.481842 cumulative IPC: 0.740638 (Simulation time: 0 hr 8 min 47 sec) 
Heartbeat CPU 0 instructions: 60000001 cycles: 109338082 heartbeat IPC: 0.193655 cumulative IPC: 0.47328 (Simulation time: 0 hr 13 min 59 sec) 
Heartbeat CPU 0 instructions: 70000000 cycles: 125079854 heartbeat IPC: 0.635252 cumulative IPC: 0.494285 (Simulation time: 0 hr 16 min 12 sec) 
Heartbeat CPU 0 instructions: 80000001 cycles: 138251485 heartbeat IPC: 0.759207 cumulative IPC: 0.520218 (Simulation time: 0 hr 18 min 14 sec) 
Heartbeat CPU 0 instructions: 90000004 cycles: 151783597 heartbeat IPC: 0.738983 cumulative IPC: 0.540208 (Simulation time: 0 hr 20 min 20 sec) 
Heartbeat CPU 0 instructions: 100000002 cycles: 165153790 heartbeat IPC: 0.747932 cumulative IPC: 0.557409 (Simulation time: 0 hr 22 min 24 sec) 
Heartbeat CPU 0 instructions: 110000001 cycles: 188023891 heartbeat IPC: 0.437252 cumulative IPC: 0.542501 (Simulation time: 0 hr 25 min 9 sec) 
Finished CPU 0 instructions: 100000000 cycles: 184331461 cumulative IPC: 0.542501 (Simulation time: 0 hr 25 min 9 sec) 

ChampSim completed all CPUs

Region of Interest Statistics

CPU 0 cumulative IPC: 0.542501 instructions: 100000000 cycles: 184331461
cpu0_DTLB TOTAL     ACCESS:   25780066  HIT:   25714320  MISS:      65746
cpu0_DTLB LOAD      ACCESS:   21161463  HIT:   21109768  MISS:      51695
cpu0_DTLB RFO       ACCESS:    4618603  HIT:    4604552  MISS:      14051
cpu0_DTLB PREFETCH  ACCESS:          0  HIT:          0  MISS:          0
cpu0_DTLB WRITEBACK ACCESS:          0  HIT:          0  MISS:          0
cpu0_DTLB TRANSLATION ACCESS:          0  HIT:          0  MISS:          0
cpu0_DTLB PREFETCH  REQUESTED:          0  ISSUED:          0  USEFUL:          0  USELESS:          0
cpu0_DTLB AVERAGE MISS LATENCY: 81.8761 cycles
cpu0_ITLB TOTAL     ACCESS:    2870270  HIT:    2870252  MISS:         18
cpu0_ITLB LOAD      ACCESS:    2870270  HIT:    2870252  MISS:         18
cpu0_ITLB RFO       ACCESS:          0  HIT:          0  MISS:          0
cpu0_ITLB PREFETCH  ACCESS:          0  HIT:          0  MISS:          0
cpu0_ITLB WRITEBACK ACCESS:          0  HIT:          0  MISS:          0
cpu0_ITLB TRANSLATION ACCESS:          0  HIT:          0  MISS:          0
cpu0_ITLB PREFETCH  REQUESTED:          0  ISSUED:          0  USEFUL:          0  USELESS:          0
cpu0_ITLB AVERAGE MISS LATENCY: 414.667 cycles
cpu0_L1I TOTAL     ACCESS:    1780498  HIT:    1780026  MISS:        472
cpu0_L1I LOAD      ACCESS:    1780498  HIT:    1780026  MISS:        472
cpu0_L1I RFO       ACCESS:          0  HIT:          0  MISS:          0
cpu0_L1I PREFETCH  ACCESS:          0  HIT:          0  MISS:          0
cpu0_L1I WRITEBACK ACCESS:          0  HIT:          0  MISS:          0
cpu0_L1I TRANSLATION ACCESS:          0  HIT:          0  MISS:          0
cpu0_L1I PREFETCH  REQUESTED:          0  ISSUED:          0  USEFUL:          0  USELESS:          0
cpu0_L1I AVERAGE MISS LATENCY: 389.288 cycles
cpu0_STLB TOTAL     ACCESS:      65764  HIT:      34140  MISS:      31624
cpu0_STLB LOAD      ACCESS:      51713  HIT:      28247  MISS:      23466
cpu0_STLB RFO       ACCESS:      14051  HIT:       5893  MISS:       8158
cpu0_STLB PREFETCH  ACCESS:          0  HIT:          0  MISS:          0
cpu0_STLB WRITEBACK ACCESS:          0  HIT:          0  MISS:          0
cpu0_STLB TRANSLATION ACCESS:          0  HIT:          0  MISS:          0
cpu0_STLB PREFETCH  REQUESTED:          0  ISSUED:          0  USEFUL:          0  USELESS:          0
cpu0_STLB AVERAGE MISS LATENCY: 151.726 cycles
cpu0_L1D TOTAL     ACCESS:   24519683  HIT:   21109481  MISS:    3410202
cpu0_L1D LOAD      ACCESS:   16366224  HIT:   13749047  MISS:    2617177
cpu0_L1D RFO       ACCESS:    8124128  HIT:    7334745  MISS:     789383
cpu0_L1D PREFETCH  ACCESS:          0  HIT:          0  MISS:          0
cpu0_L1D WRITEBACK ACCESS:          0  HIT:          0  MISS:          0
cpu0_L1D TRANSLATION ACCESS:      29331  HIT:      25689  MISS:       3642
cpu0_L1D PREFETCH  REQUESTED:          0  ISSUED:          0  USEFUL:          0  USELESS:          0
cpu0_L1D AVERAGE MISS LATENCY: 509.769 cycles
cpu0_L2C TOTAL     ACCESS:    4455089  HIT:    1718320  MISS:    2736769
cpu0_L2C LOAD      ACCESS:    2617601  HIT:     507582  MISS:    2110019
cpu0_L2C RFO       ACCESS:     789282  HIT:     162799  MISS:     626483
cpu0_L2C PREFETCH  ACCESS:          0  HIT:          0  MISS:          0
cpu0_L2C WRITEBACK ACCESS:    1044564  HIT:    1044395  MISS:        169
cpu0_L2C TRANSLATION ACCESS:       3642  HIT:       3544  MISS:         98
cpu0_L2C PREFETCH  REQUESTED:          0  ISSUED:          0  USEFUL:          0  USELESS:          0
cpu0_L2C AVERAGE MISS LATENCY: 621.536 cycles
LLC TOTAL     ACCESS:    3497312  HIT:     680278  MISS:    2817034
LLC LOAD      ACCESS:    2110019  HIT:     397479  MISS:    1712540
LLC RFO       ACCESS:     626483  HIT:     123467  MISS:     503016
LLC PREFETCH  ACCESS:          0  HIT:          0  MISS:          0
LLC WRITEBACK ACCESS:     760712  HIT:     159274  MISS:     601438
LLC TRANSLATION ACCESS:         98  HIT:         58  MISS:         40
LLC PREFETCH  REQUESTED:          0  ISSUED:          0  USEFUL:          0  USELESS:          0
LLC AVERAGE MISS LATENCY: 583.39 cycles
Insertion Distribution: 
	LOAD 105599 0 212695 1507076 
	RFO 1810 0 27908 499700 
	PREF 0 0 0 0 
	WRITEBACK 0 0 0 620944 
	 3 0 37 15 
Total Prefetch Downgrades: 0

DRAM Statistics
 CHANNEL 0
 RQ ROW_BUFFER_HIT:     215536  ROW_BUFFER_MISS:    1999892
 DBUS AVG_CONGESTED_CYCLE:    3.96084
 WQ ROW_BUFFER_HIT:      62913  ROW_BUFFER_MISS:     583447  FULL:      27704


CPU 0 Branch Prediction Accuracy: 96.8713% MPKI: 1.55303 Average ROB Occupancy at Mispredict: 299.198
Branch type MPKI
BRANCH_DIRECT_JUMP: 0.00018
BRANCH_INDIRECT: 0
BRANCH_CONDITIONAL: 1.55065
BRANCH_DIRECT_CALL: 0.00113
BRANCH_INDIRECT_CALL: 0
BRANCH_RETURN: 0.00107

