
*** ChampSim Multicore Out-of-Order Simulator ***

Warmup Instructions: 10000000
Simulation Instructions: 100000000
Number of CPUs: 1
Off-chip DRAM Size: 4 GiB Channels: 1 Width: 64-bit Data Rate: 3200 MT/s

VirtualMemory physical capacity: 8588881920 num_ppages: 2096895
VirtualMemory page size: 4096 log2_page_size: 12

CPU 0 runs /datasets/cs240c-wi22-a00-public/data/Assignment2/soplex_205B.trace.xz
CPU 0 Bimodal branch predictor
Basic BTB sets: 1024 ways: 8 indirect buffer size: 4096 RAS size: 64
Initialize SRRIP state
Heartbeat CPU 0 instructions: 10000002 cycles: 2865142 heartbeat IPC: 3.49023 cumulative IPC: 3.49023 (Simulation time: 0 hr 0 min 35 sec) 

Warmup complete CPU 0 instructions: 10000002 cycles: 2865142 (Simulation time: 0 hr 0 min 35 sec) 

Heartbeat CPU 0 instructions: 20000004 cycles: 48442514 heartbeat IPC: 0.219407 cumulative IPC: 0.219407 (Simulation time: 0 hr 3 min 51 sec) 
Heartbeat CPU 0 instructions: 30000004 cycles: 88376153 heartbeat IPC: 0.250415 cumulative IPC: 0.233888 (Simulation time: 0 hr 5 min 42 sec) 
Heartbeat CPU 0 instructions: 40000004 cycles: 118494410 heartbeat IPC: 0.332025 cumulative IPC: 0.25945 (Simulation time: 0 hr 7 min 38 sec) 
Heartbeat CPU 0 instructions: 50000001 cycles: 148997772 heartbeat IPC: 0.327833 cumulative IPC: 0.273724 (Simulation time: 0 hr 9 min 26 sec) 
Heartbeat CPU 0 instructions: 60000000 cycles: 176287494 heartbeat IPC: 0.366438 cumulative IPC: 0.288313 (Simulation time: 0 hr 11 min 4 sec) 
Heartbeat CPU 0 instructions: 70000000 cycles: 206777902 heartbeat IPC: 0.327972 cumulative IPC: 0.294243 (Simulation time: 0 hr 13 min 1 sec) 
Heartbeat CPU 0 instructions: 80000003 cycles: 235970052 heartbeat IPC: 0.342558 cumulative IPC: 0.300294 (Simulation time: 0 hr 14 min 47 sec) 
Heartbeat CPU 0 instructions: 90000000 cycles: 267274408 heartbeat IPC: 0.319444 cumulative IPC: 0.302561 (Simulation time: 0 hr 16 min 45 sec) 
Heartbeat CPU 0 instructions: 100000002 cycles: 294409397 heartbeat IPC: 0.368528 cumulative IPC: 0.308701 (Simulation time: 0 hr 18 min 18 sec) 
Heartbeat CPU 0 instructions: 110000000 cycles: 344776265 heartbeat IPC: 0.198543 cumulative IPC: 0.292474 (Simulation time: 0 hr 21 min 10 sec) 
Finished CPU 0 instructions: 100000003 cycles: 341911124 cumulative IPC: 0.292474 (Simulation time: 0 hr 21 min 10 sec) 

ChampSim completed all CPUs

Region of Interest Statistics

CPU 0 cumulative IPC: 0.292474 instructions: 100000003 cycles: 341911124
cpu0_DTLB TOTAL     ACCESS:   22288899  HIT:   21326934  MISS:     961965
cpu0_DTLB LOAD      ACCESS:   16545961  HIT:   15805218  MISS:     740743
cpu0_DTLB RFO       ACCESS:    5742938  HIT:    5521716  MISS:     221222
cpu0_DTLB PREFETCH  ACCESS:          0  HIT:          0  MISS:          0
cpu0_DTLB WRITEBACK ACCESS:          0  HIT:          0  MISS:          0
cpu0_DTLB TRANSLATION ACCESS:          0  HIT:          0  MISS:          0
cpu0_DTLB PREFETCH  REQUESTED:          0  ISSUED:          0  USEFUL:          0  USELESS:          0
cpu0_DTLB AVERAGE MISS LATENCY: 15.7075 cycles
cpu0_ITLB TOTAL     ACCESS:    7935101  HIT:    7935084  MISS:         17
cpu0_ITLB LOAD      ACCESS:    7935101  HIT:    7935084  MISS:         17
cpu0_ITLB RFO       ACCESS:          0  HIT:          0  MISS:          0
cpu0_ITLB PREFETCH  ACCESS:          0  HIT:          0  MISS:          0
cpu0_ITLB WRITEBACK ACCESS:          0  HIT:          0  MISS:          0
cpu0_ITLB TRANSLATION ACCESS:          0  HIT:          0  MISS:          0
cpu0_ITLB PREFETCH  REQUESTED:          0  ISSUED:          0  USEFUL:          0  USELESS:          0
cpu0_ITLB AVERAGE MISS LATENCY: 203.824 cycles
cpu0_L1I TOTAL     ACCESS:     825875  HIT:     825102  MISS:        773
cpu0_L1I LOAD      ACCESS:     825875  HIT:     825102  MISS:        773
cpu0_L1I RFO       ACCESS:          0  HIT:          0  MISS:          0
cpu0_L1I PREFETCH  ACCESS:          0  HIT:          0  MISS:          0
cpu0_L1I WRITEBACK ACCESS:          0  HIT:          0  MISS:          0
cpu0_L1I TRANSLATION ACCESS:          0  HIT:          0  MISS:          0
cpu0_L1I PREFETCH  REQUESTED:          0  ISSUED:          0  USEFUL:          0  USELESS:          0
cpu0_L1I AVERAGE MISS LATENCY: 339.408 cycles
cpu0_STLB TOTAL     ACCESS:     961982  HIT:     806425  MISS:     155557
cpu0_STLB LOAD      ACCESS:     740760  HIT:     596041  MISS:     144719
cpu0_STLB RFO       ACCESS:     221222  HIT:     210384  MISS:      10838
cpu0_STLB PREFETCH  ACCESS:          0  HIT:          0  MISS:          0
cpu0_STLB WRITEBACK ACCESS:          0  HIT:          0  MISS:          0
cpu0_STLB TRANSLATION ACCESS:          0  HIT:          0  MISS:          0
cpu0_STLB PREFETCH  REQUESTED:          0  ISSUED:          0  USEFUL:          0  USELESS:          0
cpu0_STLB AVERAGE MISS LATENCY: 40.5651 cycles
cpu0_L1D TOTAL     ACCESS:   19185671  HIT:   13395262  MISS:    5790409
cpu0_L1D LOAD      ACCESS:   12659242  HIT:    7824783  MISS:    4834459
cpu0_L1D RFO       ACCESS:    6374763  HIT:    5424453  MISS:     950310
cpu0_L1D PREFETCH  ACCESS:          0  HIT:          0  MISS:          0
cpu0_L1D WRITEBACK ACCESS:          0  HIT:          0  MISS:          0
cpu0_L1D TRANSLATION ACCESS:     151666  HIT:     146026  MISS:       5640
cpu0_L1D PREFETCH  REQUESTED:          0  ISSUED:          0  USEFUL:          0  USELESS:          0
cpu0_L1D AVERAGE MISS LATENCY: 240.032 cycles
cpu0_L2C TOTAL     ACCESS:    8360576  HIT:    3854895  MISS:    4505681
cpu0_L2C LOAD      ACCESS:    4834829  HIT:    1131294  MISS:    3703535
cpu0_L2C RFO       ACCESS:     950230  HIT:     148978  MISS:     801252
cpu0_L2C PREFETCH  ACCESS:          0  HIT:          0  MISS:          0
cpu0_L2C WRITEBACK ACCESS:    2569877  HIT:    2569805  MISS:         72
cpu0_L2C TRANSLATION ACCESS:       5640  HIT:       4818  MISS:        822
cpu0_L2C PREFETCH  REQUESTED:          0  ISSUED:          0  USEFUL:          0  USELESS:          0
cpu0_L2C AVERAGE MISS LATENCY: 294.181 cycles
LLC TOTAL     ACCESS:    6405687  HIT:    2800975  MISS:    3604712
LLC LOAD      ACCESS:    3703504  HIT:    1321656  MISS:    2381848
LLC RFO       ACCESS:     801244  HIT:     266338  MISS:     534906
LLC PREFETCH  ACCESS:          0  HIT:          0  MISS:          0
LLC WRITEBACK ACCESS:    1900117  HIT:    1212457  MISS:     687660
LLC TRANSLATION ACCESS:        822  HIT:        524  MISS:        298
LLC PREFETCH  REQUESTED:          0  ISSUED:          0  USEFUL:          0  USELESS:          0
LLC AVERAGE MISS LATENCY: 341.397 cycles
Insertion Distribution: 
	LOAD 324555 0 0 0 0 0 0 0 0 0 0 0 0 0 193624 2192954 
	RFO 153695 0 0 0 0 0 0 0 0 0 0 0 0 0 48132 369871 
	PREF 0 0 0 0 0 0 0 0 0 0 0 0 0 0 0 0 
	WRITEBACK 0 0 0 0 0 0 0 0 0 0 0 0 0 0 0 771412 
	 7 0 0 0 0 0 0 0 0 0 0 0 0 0 164 160 
Total Prefetch Downgrades: 0

DRAM Statistics
 CHANNEL 0
 RQ ROW_BUFFER_HIT:     352040  ROW_BUFFER_MISS:    2563145
 DBUS AVG_CONGESTED_CYCLE:    3.95734
 WQ ROW_BUFFER_HIT:      55300  ROW_BUFFER_MISS:    1026417  FULL:     302316


CPU 0 Branch Prediction Accuracy: 93.3985% MPKI: 13.5305 Average ROB Occupancy at Mispredict: 49.1982
Branch type MPKI
BRANCH_DIRECT_JUMP: 0.00081
BRANCH_INDIRECT: 0.00022
BRANCH_CONDITIONAL: 13.5274
BRANCH_DIRECT_CALL: 0.00058
BRANCH_INDIRECT_CALL: 0.00056
BRANCH_RETURN: 0.00094

