
*** ChampSim Multicore Out-of-Order Simulator ***

Warmup Instructions: 10000000
Simulation Instructions: 100000000
Number of CPUs: 1
Off-chip DRAM Size: 4 GiB Channels: 1 Width: 64-bit Data Rate: 3200 MT/s

VirtualMemory physical capacity: 8588881920 num_ppages: 2096895
VirtualMemory page size: 4096 log2_page_size: 12

CPU 0 runs /datasets/cs240c-wi22-a00-public/data/Assignment2/omnetpp_340B.trace.xz
CPU 0 Bimodal branch predictor
Basic BTB sets: 1024 ways: 8 indirect buffer size: 4096 RAS size: 64
Initialize SRRIP state
Heartbeat CPU 0 instructions: 10000002 cycles: 2500207 heartbeat IPC: 3.99967 cumulative IPC: 3.99967 (Simulation time: 0 hr 0 min 38 sec) 

Warmup complete CPU 0 instructions: 10000002 cycles: 2500207 (Simulation time: 0 hr 0 min 38 sec) 

Heartbeat CPU 0 instructions: 20000000 cycles: 27136093 heartbeat IPC: 0.405912 cumulative IPC: 0.405912 (Simulation time: 0 hr 1 min 59 sec) 
Heartbeat CPU 0 instructions: 30000002 cycles: 52263431 heartbeat IPC: 0.397973 cumulative IPC: 0.401903 (Simulation time: 0 hr 3 min 19 sec) 
Heartbeat CPU 0 instructions: 40000000 cycles: 76709787 heartbeat IPC: 0.409059 cumulative IPC: 0.40426 (Simulation time: 0 hr 4 min 36 sec) 
Heartbeat CPU 0 instructions: 50000002 cycles: 101989490 heartbeat IPC: 0.395574 cumulative IPC: 0.402053 (Simulation time: 0 hr 5 min 54 sec) 
Heartbeat CPU 0 instructions: 60000001 cycles: 128241562 heartbeat IPC: 0.380922 cumulative IPC: 0.397642 (Simulation time: 0 hr 7 min 19 sec) 
Heartbeat CPU 0 instructions: 70000003 cycles: 154252783 heartbeat IPC: 0.38445 cumulative IPC: 0.39538 (Simulation time: 0 hr 8 min 35 sec) 
Heartbeat CPU 0 instructions: 80000003 cycles: 180131448 heartbeat IPC: 0.386419 cumulative IPC: 0.394075 (Simulation time: 0 hr 10 min 0 sec) 
Heartbeat CPU 0 instructions: 90000000 cycles: 206351547 heartbeat IPC: 0.381387 cumulative IPC: 0.392443 (Simulation time: 0 hr 11 min 20 sec) 
Heartbeat CPU 0 instructions: 100000002 cycles: 232175837 heartbeat IPC: 0.387232 cumulative IPC: 0.391857 (Simulation time: 0 hr 12 min 46 sec) 
Heartbeat CPU 0 instructions: 110000000 cycles: 256965560 heartbeat IPC: 0.403393 cumulative IPC: 0.392981 (Simulation time: 0 hr 14 min 5 sec) 
Finished CPU 0 instructions: 100000000 cycles: 254465355 cumulative IPC: 0.392981 (Simulation time: 0 hr 14 min 5 sec) 

ChampSim completed all CPUs

Region of Interest Statistics

CPU 0 cumulative IPC: 0.392981 instructions: 100000000 cycles: 254465355
cpu0_DTLB TOTAL     ACCESS:   23835886  HIT:   21938781  MISS:    1897105
cpu0_DTLB LOAD      ACCESS:   13863086  HIT:   12281967  MISS:    1581119
cpu0_DTLB RFO       ACCESS:    9972800  HIT:    9656814  MISS:     315986
cpu0_DTLB PREFETCH  ACCESS:          0  HIT:          0  MISS:          0
cpu0_DTLB WRITEBACK ACCESS:          0  HIT:          0  MISS:          0
cpu0_DTLB TRANSLATION ACCESS:          0  HIT:          0  MISS:          0
cpu0_DTLB PREFETCH  REQUESTED:          0  ISSUED:          0  USEFUL:          0  USELESS:          0
cpu0_DTLB AVERAGE MISS LATENCY: 13.122 cycles
cpu0_ITLB TOTAL     ACCESS:   11128520  HIT:   11093153  MISS:      35367
cpu0_ITLB LOAD      ACCESS:   11128520  HIT:   11093153  MISS:      35367
cpu0_ITLB RFO       ACCESS:          0  HIT:          0  MISS:          0
cpu0_ITLB PREFETCH  ACCESS:          0  HIT:          0  MISS:          0
cpu0_ITLB WRITEBACK ACCESS:          0  HIT:          0  MISS:          0
cpu0_ITLB TRANSLATION ACCESS:          0  HIT:          0  MISS:          0
cpu0_ITLB PREFETCH  REQUESTED:          0  ISSUED:          0  USEFUL:          0  USELESS:          0
cpu0_ITLB AVERAGE MISS LATENCY: 9.25733 cycles
cpu0_L1I TOTAL     ACCESS:    8347416  HIT:    8341064  MISS:       6352
cpu0_L1I LOAD      ACCESS:    8347416  HIT:    8341064  MISS:       6352
cpu0_L1I RFO       ACCESS:          0  HIT:          0  MISS:          0
cpu0_L1I PREFETCH  ACCESS:          0  HIT:          0  MISS:          0
cpu0_L1I WRITEBACK ACCESS:          0  HIT:          0  MISS:          0
cpu0_L1I TRANSLATION ACCESS:          0  HIT:          0  MISS:          0
cpu0_L1I PREFETCH  REQUESTED:          0  ISSUED:          0  USEFUL:          0  USELESS:          0
cpu0_L1I AVERAGE MISS LATENCY: 56.3819 cycles
cpu0_STLB TOTAL     ACCESS:    1932472  HIT:    1457277  MISS:     475195
cpu0_STLB LOAD      ACCESS:    1616486  HIT:    1262578  MISS:     353908
cpu0_STLB RFO       ACCESS:     315986  HIT:     194699  MISS:     121287
cpu0_STLB PREFETCH  ACCESS:          0  HIT:          0  MISS:          0
cpu0_STLB WRITEBACK ACCESS:          0  HIT:          0  MISS:          0
cpu0_STLB TRANSLATION ACCESS:          0  HIT:          0  MISS:          0
cpu0_STLB PREFETCH  REQUESTED:          0  ISSUED:          0  USEFUL:          0  USELESS:          0
cpu0_STLB AVERAGE MISS LATENCY: 16.0046 cycles
cpu0_L1D TOTAL     ACCESS:   31369187  HIT:   28871283  MISS:    2497904
cpu0_L1D LOAD      ACCESS:   15698998  HIT:   13516081  MISS:    2182917
cpu0_L1D RFO       ACCESS:   15229765  HIT:   14919285  MISS:     310480
cpu0_L1D PREFETCH  ACCESS:          0  HIT:          0  MISS:          0
cpu0_L1D WRITEBACK ACCESS:          0  HIT:          0  MISS:          0
cpu0_L1D TRANSLATION ACCESS:     440424  HIT:     435917  MISS:       4507
cpu0_L1D PREFETCH  REQUESTED:          0  ISSUED:          0  USEFUL:          0  USELESS:          0
cpu0_L1D AVERAGE MISS LATENCY: 143.383 cycles
cpu0_L2C TOTAL     ACCESS:    3581369  HIT:    1431372  MISS:    2149997
cpu0_L2C LOAD      ACCESS:    2189232  HIT:     330927  MISS:    1858305
cpu0_L2C RFO       ACCESS:     310480  HIT:      22160  MISS:     288320
cpu0_L2C PREFETCH  ACCESS:          0  HIT:          0  MISS:          0
cpu0_L2C WRITEBACK ACCESS:    1077150  HIT:    1074877  MISS:       2273
cpu0_L2C TRANSLATION ACCESS:       4507  HIT:       3408  MISS:       1099
cpu0_L2C PREFETCH  REQUESTED:          0  ISSUED:          0  USEFUL:          0  USELESS:          0
cpu0_L2C AVERAGE MISS LATENCY: 153.781 cycles
LLC TOTAL     ACCESS:    3079075  HIT:    1104490  MISS:    1974585
LLC LOAD      ACCESS:    1858304  HIT:     441812  MISS:    1416492
LLC RFO       ACCESS:     288320  HIT:      63351  MISS:     224969
LLC PREFETCH  ACCESS:          0  HIT:          0  MISS:          0
LLC WRITEBACK ACCESS:     931352  HIT:     598271  MISS:     333081
LLC TRANSLATION ACCESS:       1099  HIT:       1056  MISS:         43
LLC PREFETCH  REQUESTED:          0  ISSUED:          0  USEFUL:          0  USELESS:          0
LLC AVERAGE MISS LATENCY: 144.6 cycles
Insertion Distribution: 
	LOAD 16896 0 369901 1184250 
	RFO 9103 0 160318 77960 
	PREF 0 0 0 0 
	WRITEBACK 0 0 0 364206 
	 0 0 53 15 
Total Prefetch Downgrades: 0

DRAM Statistics
 CHANNEL 0
 RQ ROW_BUFFER_HIT:      95146  ROW_BUFFER_MISS:    1546227
 DBUS AVG_CONGESTED_CYCLE:    3.91723
 WQ ROW_BUFFER_HIT:     166829  ROW_BUFFER_MISS:     506077  FULL:          0


CPU 0 Branch Prediction Accuracy: 94.4212% MPKI: 13.4017 Average ROB Occupancy at Mispredict: 52.8813
Branch type MPKI
BRANCH_DIRECT_JUMP: 0.00017
BRANCH_INDIRECT: 0.04543
BRANCH_CONDITIONAL: 13.2857
BRANCH_DIRECT_CALL: 8e-05
BRANCH_INDIRECT_CALL: 0.04734
BRANCH_RETURN: 0.02301

