
*** ChampSim Multicore Out-of-Order Simulator ***

Warmup Instructions: 10000000
Simulation Instructions: 100000000
Number of CPUs: 1
Off-chip DRAM Size: 4 GiB Channels: 1 Width: 64-bit Data Rate: 3200 MT/s

VirtualMemory physical capacity: 8588881920 num_ppages: 2096895
VirtualMemory page size: 4096 log2_page_size: 12

CPU 0 runs /datasets/cs240c-wi22-a00-public/data/Assignment2/soplex_66B.trace.xz
CPU 0 Bimodal branch predictor
Basic BTB sets: 1024 ways: 8 indirect buffer size: 4096 RAS size: 64
Initialize SRRIP state
Heartbeat CPU 0 instructions: 10000001 cycles: 2688392 heartbeat IPC: 3.7197 cumulative IPC: 3.7197 (Simulation time: 0 hr 0 min 31 sec) 

Warmup complete CPU 0 instructions: 10000001 cycles: 2688392 (Simulation time: 0 hr 0 min 31 sec) 

Heartbeat CPU 0 instructions: 20000003 cycles: 27195020 heartbeat IPC: 0.408053 cumulative IPC: 0.408053 (Simulation time: 0 hr 1 min 51 sec) 
Heartbeat CPU 0 instructions: 30000001 cycles: 51616548 heartbeat IPC: 0.409475 cumulative IPC: 0.408763 (Simulation time: 0 hr 3 min 15 sec) 
Heartbeat CPU 0 instructions: 40000002 cycles: 75701054 heartbeat IPC: 0.415205 cumulative IPC: 0.410888 (Simulation time: 0 hr 4 min 33 sec) 
Heartbeat CPU 0 instructions: 50000002 cycles: 109370242 heartbeat IPC: 0.297007 cumulative IPC: 0.374947 (Simulation time: 0 hr 6 min 37 sec) 
Heartbeat CPU 0 instructions: 60000002 cycles: 148831870 heartbeat IPC: 0.253411 cumulative IPC: 0.34213 (Simulation time: 0 hr 8 min 52 sec) 
Heartbeat CPU 0 instructions: 70000001 cycles: 175955591 heartbeat IPC: 0.368681 cumulative IPC: 0.346286 (Simulation time: 0 hr 10 min 28 sec) 
Heartbeat CPU 0 instructions: 80000001 cycles: 202883239 heartbeat IPC: 0.371366 cumulative IPC: 0.349659 (Simulation time: 0 hr 12 min 6 sec) 
Heartbeat CPU 0 instructions: 90000003 cycles: 227439650 heartbeat IPC: 0.407226 cumulative IPC: 0.355949 (Simulation time: 0 hr 13 min 27 sec) 
Heartbeat CPU 0 instructions: 100000000 cycles: 251971116 heartbeat IPC: 0.40764 cumulative IPC: 0.361036 (Simulation time: 0 hr 14 min 49 sec) 
Heartbeat CPU 0 instructions: 110000003 cycles: 276516980 heartbeat IPC: 0.407401 cumulative IPC: 0.365192 (Simulation time: 0 hr 16 min 12 sec) 
Finished CPU 0 instructions: 100000002 cycles: 273828588 cumulative IPC: 0.365192 (Simulation time: 0 hr 16 min 12 sec) 

ChampSim completed all CPUs

Region of Interest Statistics

CPU 0 cumulative IPC: 0.365192 instructions: 100000002 cycles: 273828588
cpu0_DTLB TOTAL     ACCESS:   19884384  HIT:   19306995  MISS:     577389
cpu0_DTLB LOAD      ACCESS:   14818860  HIT:   14361554  MISS:     457306
cpu0_DTLB RFO       ACCESS:    5065524  HIT:    4945441  MISS:     120083
cpu0_DTLB PREFETCH  ACCESS:          0  HIT:          0  MISS:          0
cpu0_DTLB WRITEBACK ACCESS:          0  HIT:          0  MISS:          0
cpu0_DTLB TRANSLATION ACCESS:          0  HIT:          0  MISS:          0
cpu0_DTLB PREFETCH  REQUESTED:          0  ISSUED:          0  USEFUL:          0  USELESS:          0
cpu0_DTLB AVERAGE MISS LATENCY: 16.668 cycles
cpu0_ITLB TOTAL     ACCESS:    8262297  HIT:    8262279  MISS:         18
cpu0_ITLB LOAD      ACCESS:    8262297  HIT:    8262279  MISS:         18
cpu0_ITLB RFO       ACCESS:          0  HIT:          0  MISS:          0
cpu0_ITLB PREFETCH  ACCESS:          0  HIT:          0  MISS:          0
cpu0_ITLB WRITEBACK ACCESS:          0  HIT:          0  MISS:          0
cpu0_ITLB TRANSLATION ACCESS:          0  HIT:          0  MISS:          0
cpu0_ITLB PREFETCH  REQUESTED:          0  ISSUED:          0  USEFUL:          0  USELESS:          0
cpu0_ITLB AVERAGE MISS LATENCY: 322.222 cycles
cpu0_L1I TOTAL     ACCESS:    1901594  HIT:    1900734  MISS:        860
cpu0_L1I LOAD      ACCESS:    1901594  HIT:    1900734  MISS:        860
cpu0_L1I RFO       ACCESS:          0  HIT:          0  MISS:          0
cpu0_L1I PREFETCH  ACCESS:          0  HIT:          0  MISS:          0
cpu0_L1I WRITEBACK ACCESS:          0  HIT:          0  MISS:          0
cpu0_L1I TRANSLATION ACCESS:          0  HIT:          0  MISS:          0
cpu0_L1I PREFETCH  REQUESTED:          0  ISSUED:          0  USEFUL:          0  USELESS:          0
cpu0_L1I AVERAGE MISS LATENCY: 303.33 cycles
cpu0_STLB TOTAL     ACCESS:     577407  HIT:     474486  MISS:     102921
cpu0_STLB LOAD      ACCESS:     457324  HIT:     362248  MISS:      95076
cpu0_STLB RFO       ACCESS:     120083  HIT:     112238  MISS:       7845
cpu0_STLB PREFETCH  ACCESS:          0  HIT:          0  MISS:          0
cpu0_STLB WRITEBACK ACCESS:          0  HIT:          0  MISS:          0
cpu0_STLB TRANSLATION ACCESS:          0  HIT:          0  MISS:          0
cpu0_STLB PREFETCH  REQUESTED:          0  ISSUED:          0  USEFUL:          0  USELESS:          0
cpu0_STLB AVERAGE MISS LATENCY: 42.4815 cycles
cpu0_L1D TOTAL     ACCESS:   17091106  HIT:   12774039  MISS:    4317067
cpu0_L1D LOAD      ACCESS:   11098370  HIT:    7500039  MISS:    3598331
cpu0_L1D RFO       ACCESS:    5892666  HIT:    5176572  MISS:     716094
cpu0_L1D PREFETCH  ACCESS:          0  HIT:          0  MISS:          0
cpu0_L1D WRITEBACK ACCESS:          0  HIT:          0  MISS:          0
cpu0_L1D TRANSLATION ACCESS:     100070  HIT:      97428  MISS:       2642
cpu0_L1D PREFETCH  REQUESTED:          0  ISSUED:          0  USEFUL:          0  USELESS:          0
cpu0_L1D AVERAGE MISS LATENCY: 218.91 cycles
cpu0_L2C TOTAL     ACCESS:    6105417  HIT:    2608186  MISS:    3497231
cpu0_L2C LOAD      ACCESS:    3599060  HIT:     717465  MISS:    2881595
cpu0_L2C RFO       ACCESS:     716033  HIT:     101663  MISS:     614370
cpu0_L2C PREFETCH  ACCESS:          0  HIT:          0  MISS:          0
cpu0_L2C WRITEBACK ACCESS:    1787682  HIT:    1787142  MISS:        540
cpu0_L2C TRANSLATION ACCESS:       2642  HIT:       1916  MISS:        726
cpu0_L2C PREFETCH  REQUESTED:          0  ISSUED:          0  USEFUL:          0  USELESS:          0
cpu0_L2C AVERAGE MISS LATENCY: 256.529 cycles
LLC TOTAL     ACCESS:    4876760  HIT:    2243000  MISS:    2633760
LLC LOAD      ACCESS:    2881585  HIT:    1194371  MISS:    1687214
LLC RFO       ACCESS:     614369  HIT:     224656  MISS:     389713
LLC PREFETCH  ACCESS:          0  HIT:          0  MISS:          0
LLC WRITEBACK ACCESS:    1380080  HIT:     823503  MISS:     556577
LLC TRANSLATION ACCESS:        726  HIT:        470  MISS:        256
LLC PREFETCH  REQUESTED:          0  ISSUED:          0  USEFUL:          0  USELESS:          0
LLC AVERAGE MISS LATENCY: 311.327 cycles
Insertion Distribution: 
	LOAD 186642 0 0 0 0 0 162941 1527559 
	RFO 43033 0 0 0 0 0 68905 328875 
	PREF 0 0 0 0 0 0 0 0 
	WRITEBACK 0 0 0 0 0 0 0 607827 
	 2 0 0 0 0 0 160 123 
Total Prefetch Downgrades: 0

DRAM Statistics
 CHANNEL 0
 RQ ROW_BUFFER_HIT:     338715  ROW_BUFFER_MISS:    1736428
 DBUS AVG_CONGESTED_CYCLE:    3.95085
 WQ ROW_BUFFER_HIT:      58648  ROW_BUFFER_MISS:     736517  FULL:     835117


CPU 0 Branch Prediction Accuracy: 91.9788% MPKI: 17.5693 Average ROB Occupancy at Mispredict: 27.6793
Branch type MPKI
BRANCH_DIRECT_JUMP: 0.00093
BRANCH_INDIRECT: 0.00028
BRANCH_CONDITIONAL: 17.5659
BRANCH_DIRECT_CALL: 0.00064
BRANCH_INDIRECT_CALL: 0.00043
BRANCH_RETURN: 0.00108

