
*** ChampSim Multicore Out-of-Order Simulator ***

Warmup Instructions: 10000000
Simulation Instructions: 100000000
Number of CPUs: 1
Off-chip DRAM Size: 4 GiB Channels: 1 Width: 64-bit Data Rate: 3200 MT/s

VirtualMemory physical capacity: 8588881920 num_ppages: 2096895
VirtualMemory page size: 4096 log2_page_size: 12

CPU 0 runs /datasets/cs240c-wi22-a00-public/data/Assignment2/milc_744B.trace.xz
CPU 0 Bimodal branch predictor
Basic BTB sets: 1024 ways: 8 indirect buffer size: 4096 RAS size: 64
Initialize SRRIP state
Heartbeat CPU 0 instructions: 10000000 cycles: 2597395 heartbeat IPC: 3.85001 cumulative IPC: 3.85001 (Simulation time: 0 hr 0 min 33 sec) 

Warmup complete CPU 0 instructions: 10000005 cycles: 2597401 (Simulation time: 0 hr 0 min 33 sec) 

Heartbeat CPU 0 instructions: 20000003 cycles: 16340263 heartbeat IPC: 0.72765 cumulative IPC: 0.72765 (Simulation time: 0 hr 1 min 35 sec) 
Heartbeat CPU 0 instructions: 30000000 cycles: 30061958 heartbeat IPC: 0.728773 cumulative IPC: 0.728211 (Simulation time: 0 hr 2 min 37 sec) 
Heartbeat CPU 0 instructions: 40000002 cycles: 43776493 heartbeat IPC: 0.729154 cumulative IPC: 0.728525 (Simulation time: 0 hr 3 min 37 sec) 
Heartbeat CPU 0 instructions: 50000000 cycles: 57516777 heartbeat IPC: 0.727787 cumulative IPC: 0.72834 (Simulation time: 0 hr 4 min 41 sec) 
Heartbeat CPU 0 instructions: 60000000 cycles: 71241762 heartbeat IPC: 0.728598 cumulative IPC: 0.728392 (Simulation time: 0 hr 5 min 46 sec) 
Heartbeat CPU 0 instructions: 70000002 cycles: 84976581 heartbeat IPC: 0.728077 cumulative IPC: 0.728339 (Simulation time: 0 hr 6 min 55 sec) 
Heartbeat CPU 0 instructions: 80000003 cycles: 98660845 heartbeat IPC: 0.730766 cumulative IPC: 0.728685 (Simulation time: 0 hr 8 min 5 sec) 
Heartbeat CPU 0 instructions: 90000002 cycles: 112340944 heartbeat IPC: 0.730989 cumulative IPC: 0.728972 (Simulation time: 0 hr 9 min 18 sec) 
Heartbeat CPU 0 instructions: 100000002 cycles: 146586250 heartbeat IPC: 0.292011 cumulative IPC: 0.625048 (Simulation time: 0 hr 15 min 21 sec) 
Heartbeat CPU 0 instructions: 110000004 cycles: 156886549 heartbeat IPC: 0.970846 cumulative IPC: 0.648134 (Simulation time: 0 hr 16 min 22 sec) 
Finished CPU 0 instructions: 100000004 cycles: 154289149 cumulative IPC: 0.648134 (Simulation time: 0 hr 16 min 22 sec) 

ChampSim completed all CPUs

Region of Interest Statistics

CPU 0 cumulative IPC: 0.648134 instructions: 100000004 cycles: 154289149
cpu0_DTLB TOTAL     ACCESS:   13562892  HIT:   13428108  MISS:     134784
cpu0_DTLB LOAD      ACCESS:   10518789  HIT:   10390632  MISS:     128157
cpu0_DTLB RFO       ACCESS:    3044103  HIT:    3037476  MISS:       6627
cpu0_DTLB PREFETCH  ACCESS:          0  HIT:          0  MISS:          0
cpu0_DTLB WRITEBACK ACCESS:          0  HIT:          0  MISS:          0
cpu0_DTLB TRANSLATION ACCESS:          0  HIT:          0  MISS:          0
cpu0_DTLB PREFETCH  REQUESTED:          0  ISSUED:          0  USEFUL:          0  USELESS:          0
cpu0_DTLB AVERAGE MISS LATENCY: 147.366 cycles
cpu0_ITLB TOTAL     ACCESS:    8135558  HIT:    8135553  MISS:          5
cpu0_ITLB LOAD      ACCESS:    8135558  HIT:    8135553  MISS:          5
cpu0_ITLB RFO       ACCESS:          0  HIT:          0  MISS:          0
cpu0_ITLB PREFETCH  ACCESS:          0  HIT:          0  MISS:          0
cpu0_ITLB WRITEBACK ACCESS:          0  HIT:          0  MISS:          0
cpu0_ITLB TRANSLATION ACCESS:          0  HIT:          0  MISS:          0
cpu0_ITLB PREFETCH  REQUESTED:          0  ISSUED:          0  USEFUL:          0  USELESS:          0
cpu0_ITLB AVERAGE MISS LATENCY: 219.2 cycles
cpu0_L1I TOTAL     ACCESS:     365359  HIT:     365312  MISS:         47
cpu0_L1I LOAD      ACCESS:     365359  HIT:     365312  MISS:         47
cpu0_L1I RFO       ACCESS:          0  HIT:          0  MISS:          0
cpu0_L1I PREFETCH  ACCESS:          0  HIT:          0  MISS:          0
cpu0_L1I WRITEBACK ACCESS:          0  HIT:          0  MISS:          0
cpu0_L1I TRANSLATION ACCESS:          0  HIT:          0  MISS:          0
cpu0_L1I PREFETCH  REQUESTED:          0  ISSUED:          0  USEFUL:          0  USELESS:          0
cpu0_L1I AVERAGE MISS LATENCY: 276.468 cycles
cpu0_STLB TOTAL     ACCESS:     134789  HIT:       2588  MISS:     132201
cpu0_STLB LOAD      ACCESS:     128162  HIT:       2578  MISS:     125584
cpu0_STLB RFO       ACCESS:       6627  HIT:         10  MISS:       6617
cpu0_STLB PREFETCH  ACCESS:          0  HIT:          0  MISS:          0
cpu0_STLB WRITEBACK ACCESS:          0  HIT:          0  MISS:          0
cpu0_STLB TRANSLATION ACCESS:          0  HIT:          0  MISS:          0
cpu0_STLB PREFETCH  REQUESTED:          0  ISSUED:          0  USEFUL:          0  USELESS:          0
cpu0_STLB AVERAGE MISS LATENCY: 141.067 cycles
cpu0_L1D TOTAL     ACCESS:   13088358  HIT:   11343421  MISS:    1744937
cpu0_L1D LOAD      ACCESS:    6800470  HIT:    5479217  MISS:    1321253
cpu0_L1D RFO       ACCESS:    6156939  HIT:    5733639  MISS:     423300
cpu0_L1D PREFETCH  ACCESS:          0  HIT:          0  MISS:          0
cpu0_L1D WRITEBACK ACCESS:          0  HIT:          0  MISS:          0
cpu0_L1D TRANSLATION ACCESS:     130949  HIT:     130565  MISS:        384
cpu0_L1D PREFETCH  REQUESTED:          0  ISSUED:          0  USEFUL:          0  USELESS:          0
cpu0_L1D AVERAGE MISS LATENCY: 417.133 cycles
cpu0_L2C TOTAL     ACCESS:    2446394  HIT:     701423  MISS:    1744971
cpu0_L2C LOAD      ACCESS:    1321300  HIT:          0  MISS:    1321300
cpu0_L2C RFO       ACCESS:     423300  HIT:          0  MISS:     423300
cpu0_L2C PREFETCH  ACCESS:          0  HIT:          0  MISS:          0
cpu0_L2C WRITEBACK ACCESS:     701410  HIT:     701404  MISS:          6
cpu0_L2C TRANSLATION ACCESS:        384  HIT:         19  MISS:        365
cpu0_L2C PREFETCH  REQUESTED:          0  ISSUED:          0  USEFUL:          0  USELESS:          0
cpu0_L2C AVERAGE MISS LATENCY: 406.064 cycles
LLC TOTAL     ACCESS:    2446271  HIT:      96368  MISS:    2349903
LLC LOAD      ACCESS:    1321300  HIT:        314  MISS:    1320986
LLC RFO       ACCESS:     423300  HIT:         42  MISS:     423258
LLC PREFETCH  ACCESS:          0  HIT:          0  MISS:          0
LLC WRITEBACK ACCESS:     701306  HIT:      95684  MISS:     605622
LLC TRANSLATION ACCESS:        365  HIT:        328  MISS:         37
LLC PREFETCH  REQUESTED:          0  ISSUED:          0  USEFUL:          0  USELESS:          0
LLC AVERAGE MISS LATENCY: 285.938 cycles
Insertion Distribution: 
	LOAD 0 0 765045 696143 
	RFO 0 0 66167 357093 
	PREF 0 0 0 0 
	WRITEBACK 0 0 0 609791 
	 0 0 41 12 
Total Prefetch Downgrades: 0

DRAM Statistics
 CHANNEL 0
 RQ ROW_BUFFER_HIT:     183181  ROW_BUFFER_MISS:    1561094
 DBUS AVG_CONGESTED_CYCLE:    3.95672
 WQ ROW_BUFFER_HIT:      83133  ROW_BUFFER_MISS:     613723  FULL:          0


CPU 0 Branch Prediction Accuracy: 77.9348% MPKI: 4.47835 Average ROB Occupancy at Mispredict: 303.176
Branch type MPKI
BRANCH_DIRECT_JUMP: 5e-05
BRANCH_INDIRECT: 0
BRANCH_CONDITIONAL: 4.47814
BRANCH_DIRECT_CALL: 8e-05
BRANCH_INDIRECT_CALL: 0
BRANCH_RETURN: 8e-05

