
*** ChampSim Multicore Out-of-Order Simulator ***

Warmup Instructions: 10000000
Simulation Instructions: 100000000
Number of CPUs: 1
Off-chip DRAM Size: 4 GiB Channels: 1 Width: 64-bit Data Rate: 3200 MT/s

VirtualMemory physical capacity: 8588881920 num_ppages: 2096895
VirtualMemory page size: 4096 log2_page_size: 12

CPU 0 runs /datasets/cs240c-wi22-a00-public/data/Assignment2/astar_23B.trace.xz
CPU 0 Bimodal branch predictor
Basic BTB sets: 1024 ways: 8 indirect buffer size: 4096 RAS size: 64
Initialize SRRIP state
Heartbeat CPU 0 instructions: 10000002 cycles: 2670768 heartbeat IPC: 3.74424 cumulative IPC: 3.74424 (Simulation time: 0 hr 0 min 33 sec) 

Warmup complete CPU 0 instructions: 10000002 cycles: 2670768 (Simulation time: 0 hr 0 min 33 sec) 

Heartbeat CPU 0 instructions: 20000003 cycles: 25630543 heartbeat IPC: 0.435544 cumulative IPC: 0.435544 (Simulation time: 0 hr 1 min 13 sec) 
Heartbeat CPU 0 instructions: 30000000 cycles: 50086771 heartbeat IPC: 0.408894 cumulative IPC: 0.421798 (Simulation time: 0 hr 1 min 56 sec) 
Heartbeat CPU 0 instructions: 40000002 cycles: 74742366 heartbeat IPC: 0.405588 cumulative IPC: 0.416253 (Simulation time: 0 hr 2 min 39 sec) 
Heartbeat CPU 0 instructions: 50000002 cycles: 98984898 heartbeat IPC: 0.412498 cumulative IPC: 0.415308 (Simulation time: 0 hr 3 min 19 sec) 
Heartbeat CPU 0 instructions: 60000000 cycles: 123536102 heartbeat IPC: 0.407312 cumulative IPC: 0.413684 (Simulation time: 0 hr 4 min 3 sec) 
Heartbeat CPU 0 instructions: 70000000 cycles: 146511835 heartbeat IPC: 0.435242 cumulative IPC: 0.417127 (Simulation time: 0 hr 4 min 45 sec) 
Heartbeat CPU 0 instructions: 80000000 cycles: 170457881 heartbeat IPC: 0.417605 cumulative IPC: 0.417195 (Simulation time: 0 hr 5 min 26 sec) 
Heartbeat CPU 0 instructions: 90000004 cycles: 194813541 heartbeat IPC: 0.410582 cumulative IPC: 0.416357 (Simulation time: 0 hr 6 min 10 sec) 
Heartbeat CPU 0 instructions: 100000002 cycles: 218222818 heartbeat IPC: 0.427181 cumulative IPC: 0.417533 (Simulation time: 0 hr 6 min 52 sec) 
Heartbeat CPU 0 instructions: 110000003 cycles: 242197554 heartbeat IPC: 0.417106 cumulative IPC: 0.41749 (Simulation time: 0 hr 7 min 34 sec) 
Finished CPU 0 instructions: 100000001 cycles: 239526786 cumulative IPC: 0.41749 (Simulation time: 0 hr 7 min 34 sec) 

ChampSim completed all CPUs

Region of Interest Statistics

CPU 0 cumulative IPC: 0.41749 instructions: 100000001 cycles: 239526786
cpu0_DTLB TOTAL     ACCESS:   24054223  HIT:   21626377  MISS:    2427846
cpu0_DTLB LOAD      ACCESS:   21285551  HIT:   19103615  MISS:    2181936
cpu0_DTLB RFO       ACCESS:    2768672  HIT:    2522762  MISS:     245910
cpu0_DTLB PREFETCH  ACCESS:          0  HIT:          0  MISS:          0
cpu0_DTLB WRITEBACK ACCESS:          0  HIT:          0  MISS:          0
cpu0_DTLB TRANSLATION ACCESS:          0  HIT:          0  MISS:          0
cpu0_DTLB PREFETCH  REQUESTED:          0  ISSUED:          0  USEFUL:          0  USELESS:          0
cpu0_DTLB AVERAGE MISS LATENCY: 10.5705 cycles
cpu0_ITLB TOTAL     ACCESS:   12810462  HIT:   12810452  MISS:         10
cpu0_ITLB LOAD      ACCESS:   12810462  HIT:   12810452  MISS:         10
cpu0_ITLB RFO       ACCESS:          0  HIT:          0  MISS:          0
cpu0_ITLB PREFETCH  ACCESS:          0  HIT:          0  MISS:          0
cpu0_ITLB WRITEBACK ACCESS:          0  HIT:          0  MISS:          0
cpu0_ITLB TRANSLATION ACCESS:          0  HIT:          0  MISS:          0
cpu0_ITLB PREFETCH  REQUESTED:          0  ISSUED:          0  USEFUL:          0  USELESS:          0
cpu0_ITLB AVERAGE MISS LATENCY: 239.6 cycles
cpu0_L1I TOTAL     ACCESS:       4975  HIT:       4874  MISS:        101
cpu0_L1I LOAD      ACCESS:       4975  HIT:       4874  MISS:        101
cpu0_L1I RFO       ACCESS:          0  HIT:          0  MISS:          0
cpu0_L1I PREFETCH  ACCESS:          0  HIT:          0  MISS:          0
cpu0_L1I WRITEBACK ACCESS:          0  HIT:          0  MISS:          0
cpu0_L1I TRANSLATION ACCESS:          0  HIT:          0  MISS:          0
cpu0_L1I PREFETCH  REQUESTED:          0  ISSUED:          0  USEFUL:          0  USELESS:          0
cpu0_L1I AVERAGE MISS LATENCY: 186.495 cycles
cpu0_STLB TOTAL     ACCESS:    2427856  HIT:    2026646  MISS:     401210
cpu0_STLB LOAD      ACCESS:    2181946  HIT:    1847058  MISS:     334888
cpu0_STLB RFO       ACCESS:     245910  HIT:     179588  MISS:      66322
cpu0_STLB PREFETCH  ACCESS:          0  HIT:          0  MISS:          0
cpu0_STLB WRITEBACK ACCESS:          0  HIT:          0  MISS:          0
cpu0_STLB TRANSLATION ACCESS:          0  HIT:          0  MISS:          0
cpu0_STLB PREFETCH  REQUESTED:          0  ISSUED:          0  USEFUL:          0  USELESS:          0
cpu0_STLB AVERAGE MISS LATENCY: 9.44381 cycles
cpu0_L1D TOTAL     ACCESS:   26431703  HIT:   23507211  MISS:    2924492
cpu0_L1D LOAD      ACCESS:   21757781  HIT:   18872355  MISS:    2885426
cpu0_L1D RFO       ACCESS:    4287394  HIT:    4250311  MISS:      37083
cpu0_L1D PREFETCH  ACCESS:          0  HIT:          0  MISS:          0
cpu0_L1D WRITEBACK ACCESS:          0  HIT:          0  MISS:          0
cpu0_L1D TRANSLATION ACCESS:     386528  HIT:     384545  MISS:       1983
cpu0_L1D PREFETCH  REQUESTED:          0  ISSUED:          0  USEFUL:          0  USELESS:          0
cpu0_L1D AVERAGE MISS LATENCY: 33.3975 cycles
cpu0_L2C TOTAL     ACCESS:    3881066  HIT:    2756699  MISS:    1124367
cpu0_L2C LOAD      ACCESS:    2885456  HIT:    1767328  MISS:    1118128
cpu0_L2C RFO       ACCESS:      37083  HIT:      31088  MISS:       5995
cpu0_L2C PREFETCH  ACCESS:          0  HIT:          0  MISS:          0
cpu0_L2C WRITEBACK ACCESS:     956544  HIT:     956488  MISS:         56
cpu0_L2C TRANSLATION ACCESS:       1983  HIT:       1795  MISS:        188
cpu0_L2C PREFETCH  REQUESTED:          0  ISSUED:          0  USEFUL:          0  USELESS:          0
cpu0_L2C AVERAGE MISS LATENCY: 58.219 cycles
LLC TOTAL     ACCESS:    1532663  HIT:    1248514  MISS:     284149
LLC LOAD      ACCESS:    1117972  HIT:     876388  MISS:     241584
LLC RFO       ACCESS:       5995  HIT:       5663  MISS:        332
LLC PREFETCH  ACCESS:          0  HIT:          0  MISS:          0
LLC WRITEBACK ACCESS:     408508  HIT:     366288  MISS:      42220
LLC TRANSLATION ACCESS:        188  HIT:        175  MISS:         13
LLC PREFETCH  REQUESTED:          0  ISSUED:          0  USEFUL:          0  USELESS:          0
LLC AVERAGE MISS LATENCY: 147.289 cycles
Insertion Distribution: 
	LOAD 77725 0 124752 64986 
	RFO 73 0 289 25 
	PREF 0 0 0 0 
	WRITEBACK 0 0 0 42772 
	 1 0 23 0 
Total Prefetch Downgrades: 0

DRAM Statistics
 CHANNEL 0
 RQ ROW_BUFFER_HIT:        661  ROW_BUFFER_MISS:     241017
 DBUS AVG_CONGESTED_CYCLE:    3.55363
 WQ ROW_BUFFER_HIT:       6601  ROW_BUFFER_MISS:     130307  FULL:          0


CPU 0 Branch Prediction Accuracy: 69.3175% MPKI: 58.5794 Average ROB Occupancy at Mispredict: 5.13461
Branch type MPKI
BRANCH_DIRECT_JUMP: 0.00025
BRANCH_INDIRECT: 0
BRANCH_CONDITIONAL: 58.5789
BRANCH_DIRECT_CALL: 0.00016
BRANCH_INDIRECT_CALL: 0
BRANCH_RETURN: 0.00016

