
*** ChampSim Multicore Out-of-Order Simulator ***

Warmup Instructions: 10000000
Simulation Instructions: 100000000
Number of CPUs: 1
Off-chip DRAM Size: 4 GiB Channels: 1 Width: 64-bit Data Rate: 3200 MT/s

VirtualMemory physical capacity: 8588881920 num_ppages: 2096895
VirtualMemory page size: 4096 log2_page_size: 12

CPU 0 runs /datasets/cs240c-wi22-a00-public/data/Assignment2/leslie3d_1116B.trace.xz
CPU 0 Bimodal branch predictor
Basic BTB sets: 1024 ways: 8 indirect buffer size: 4096 RAS size: 64
Initialize SRRIP state
Heartbeat CPU 0 instructions: 10000000 cycles: 3692437 heartbeat IPC: 2.70824 cumulative IPC: 2.70824 (Simulation time: 0 hr 0 min 44 sec) 

Warmup complete CPU 0 instructions: 10000005 cycles: 3692438 (Simulation time: 0 hr 0 min 44 sec) 

Heartbeat CPU 0 instructions: 20000000 cycles: 14193278 heartbeat IPC: 0.952305 cumulative IPC: 0.952304 (Simulation time: 0 hr 2 min 7 sec) 
Heartbeat CPU 0 instructions: 30000000 cycles: 24836687 heartbeat IPC: 0.939549 cumulative IPC: 0.945883 (Simulation time: 0 hr 3 min 36 sec) 
Heartbeat CPU 0 instructions: 40000001 cycles: 37551628 heartbeat IPC: 0.786476 cumulative IPC: 0.886022 (Simulation time: 0 hr 5 min 10 sec) 
Heartbeat CPU 0 instructions: 50000000 cycles: 59158793 heartbeat IPC: 0.462809 cumulative IPC: 0.721158 (Simulation time: 0 hr 7 min 22 sec) 
Heartbeat CPU 0 instructions: 60000001 cycles: 112845211 heartbeat IPC: 0.186267 cumulative IPC: 0.458074 (Simulation time: 0 hr 11 min 50 sec) 
Heartbeat CPU 0 instructions: 70000000 cycles: 127486097 heartbeat IPC: 0.683019 cumulative IPC: 0.484677 (Simulation time: 0 hr 13 min 36 sec) 
Heartbeat CPU 0 instructions: 80000001 cycles: 141011812 heartbeat IPC: 0.739332 cumulative IPC: 0.50976 (Simulation time: 0 hr 15 min 17 sec) 
Heartbeat CPU 0 instructions: 90000004 cycles: 154464509 heartbeat IPC: 0.743346 cumulative IPC: 0.530602 (Simulation time: 0 hr 16 min 58 sec) 
Heartbeat CPU 0 instructions: 100000002 cycles: 167893199 heartbeat IPC: 0.744674 cumulative IPC: 0.548109 (Simulation time: 0 hr 18 min 37 sec) 
Heartbeat CPU 0 instructions: 110000001 cycles: 185375223 heartbeat IPC: 0.572016 cumulative IPC: 0.55041 (Simulation time: 0 hr 20 min 32 sec) 
Finished CPU 0 instructions: 100000001 cycles: 181682786 cumulative IPC: 0.55041 (Simulation time: 0 hr 20 min 32 sec) 

ChampSim completed all CPUs

Region of Interest Statistics

CPU 0 cumulative IPC: 0.55041 instructions: 100000001 cycles: 181682786
cpu0_DTLB TOTAL     ACCESS:   25767562  HIT:   25701815  MISS:      65747
cpu0_DTLB LOAD      ACCESS:   21129480  HIT:   21077778  MISS:      51702
cpu0_DTLB RFO       ACCESS:    4638082  HIT:    4624037  MISS:      14045
cpu0_DTLB PREFETCH  ACCESS:          0  HIT:          0  MISS:          0
cpu0_DTLB WRITEBACK ACCESS:          0  HIT:          0  MISS:          0
cpu0_DTLB TRANSLATION ACCESS:          0  HIT:          0  MISS:          0
cpu0_DTLB PREFETCH  REQUESTED:          0  ISSUED:          0  USEFUL:          0  USELESS:          0
cpu0_DTLB AVERAGE MISS LATENCY: 83.5671 cycles
cpu0_ITLB TOTAL     ACCESS:    2897104  HIT:    2897086  MISS:         18
cpu0_ITLB LOAD      ACCESS:    2897104  HIT:    2897086  MISS:         18
cpu0_ITLB RFO       ACCESS:          0  HIT:          0  MISS:          0
cpu0_ITLB PREFETCH  ACCESS:          0  HIT:          0  MISS:          0
cpu0_ITLB WRITEBACK ACCESS:          0  HIT:          0  MISS:          0
cpu0_ITLB TRANSLATION ACCESS:          0  HIT:          0  MISS:          0
cpu0_ITLB PREFETCH  REQUESTED:          0  ISSUED:          0  USEFUL:          0  USELESS:          0
cpu0_ITLB AVERAGE MISS LATENCY: 348.556 cycles
cpu0_L1I TOTAL     ACCESS:    1782008  HIT:    1781536  MISS:        472
cpu0_L1I LOAD      ACCESS:    1782008  HIT:    1781536  MISS:        472
cpu0_L1I RFO       ACCESS:          0  HIT:          0  MISS:          0
cpu0_L1I PREFETCH  ACCESS:          0  HIT:          0  MISS:          0
cpu0_L1I WRITEBACK ACCESS:          0  HIT:          0  MISS:          0
cpu0_L1I TRANSLATION ACCESS:          0  HIT:          0  MISS:          0
cpu0_L1I PREFETCH  REQUESTED:          0  ISSUED:          0  USEFUL:          0  USELESS:          0
cpu0_L1I AVERAGE MISS LATENCY: 351.326 cycles
cpu0_STLB TOTAL     ACCESS:      65765  HIT:      34141  MISS:      31624
cpu0_STLB LOAD      ACCESS:      51720  HIT:      28254  MISS:      23466
cpu0_STLB RFO       ACCESS:      14045  HIT:       5887  MISS:       8158
cpu0_STLB PREFETCH  ACCESS:          0  HIT:          0  MISS:          0
cpu0_STLB WRITEBACK ACCESS:          0  HIT:          0  MISS:          0
cpu0_STLB TRANSLATION ACCESS:          0  HIT:          0  MISS:          0
cpu0_STLB PREFETCH  REQUESTED:          0  ISSUED:          0  USEFUL:          0  USELESS:          0
cpu0_STLB AVERAGE MISS LATENCY: 155.205 cycles
cpu0_L1D TOTAL     ACCESS:   24402805  HIT:   20992568  MISS:    3410237
cpu0_L1D LOAD      ACCESS:   16249003  HIT:   13631769  MISS:    2617234
cpu0_L1D RFO       ACCESS:    8124450  HIT:    7335087  MISS:     789363
cpu0_L1D PREFETCH  ACCESS:          0  HIT:          0  MISS:          0
cpu0_L1D WRITEBACK ACCESS:          0  HIT:          0  MISS:          0
cpu0_L1D TRANSLATION ACCESS:      29352  HIT:      25712  MISS:       3640
cpu0_L1D PREFETCH  REQUESTED:          0  ISSUED:          0  USEFUL:          0  USELESS:          0
cpu0_L1D AVERAGE MISS LATENCY: 498.521 cycles
cpu0_L2C TOTAL     ACCESS:    4455169  HIT:    1718518  MISS:    2736651
cpu0_L2C LOAD      ACCESS:    2617660  HIT:     507762  MISS:    2109898
cpu0_L2C RFO       ACCESS:     789312  HIT:     162834  MISS:     626478
cpu0_L2C PREFETCH  ACCESS:          0  HIT:          0  MISS:          0
cpu0_L2C WRITEBACK ACCESS:    1044557  HIT:    1044380  MISS:        177
cpu0_L2C TRANSLATION ACCESS:       3640  HIT:       3542  MISS:         98
cpu0_L2C PREFETCH  REQUESTED:          0  ISSUED:          0  USEFUL:          0  USELESS:          0
cpu0_L2C AVERAGE MISS LATENCY: 607.546 cycles
LLC TOTAL     ACCESS:    3497193  HIT:     734383  MISS:    2762810
LLC LOAD      ACCESS:    2109898  HIT:     410907  MISS:    1698991
LLC RFO       ACCESS:     626478  HIT:     119262  MISS:     507216
LLC PREFETCH  ACCESS:          0  HIT:          0  MISS:          0
LLC WRITEBACK ACCESS:     760719  HIT:     204156  MISS:     556563
LLC TRANSLATION ACCESS:         98  HIT:         58  MISS:         40
LLC PREFETCH  REQUESTED:          0  ISSUED:          0  USEFUL:          0  USELESS:          0
LLC AVERAGE MISS LATENCY: 580.956 cycles
Insertion Distribution: 
	LOAD 102102 0 288667 1425181 
	RFO 1 0 74309 459308 
	PREF 0 0 0 0 
	WRITEBACK 0 0 0 574340 
	 0 0 37 18 
Total Prefetch Downgrades: 0

DRAM Statistics
 CHANNEL 0
 RQ ROW_BUFFER_HIT:     219786  ROW_BUFFER_MISS:    1986272
 DBUS AVG_CONGESTED_CYCLE:    3.95598
 WQ ROW_BUFFER_HIT:      59332  ROW_BUFFER_MISS:     591255  FULL:      31292


CPU 0 Branch Prediction Accuracy: 96.8713% MPKI: 1.55303 Average ROB Occupancy at Mispredict: 298.366
Branch type MPKI
BRANCH_DIRECT_JUMP: 0.00018
BRANCH_INDIRECT: 0
BRANCH_CONDITIONAL: 1.55065
BRANCH_DIRECT_CALL: 0.00113
BRANCH_INDIRECT_CALL: 0
BRANCH_RETURN: 0.00107

