
*** ChampSim Multicore Out-of-Order Simulator ***

Warmup Instructions: 10000000
Simulation Instructions: 100000000
Number of CPUs: 1
Off-chip DRAM Size: 4 GiB Channels: 1 Width: 64-bit Data Rate: 3200 MT/s

VirtualMemory physical capacity: 8588881920 num_ppages: 2096895
VirtualMemory page size: 4096 log2_page_size: 12

CPU 0 runs /datasets/cs240c-wi22-a00-public/data/Assignment2/omnetpp_340B.trace.xz
CPU 0 Bimodal branch predictor
Basic BTB sets: 1024 ways: 8 indirect buffer size: 4096 RAS size: 64
Initialize SRRIP state
Heartbeat CPU 0 instructions: 10000002 cycles: 2500207 heartbeat IPC: 3.99967 cumulative IPC: 3.99967 (Simulation time: 0 hr 0 min 38 sec) 

Warmup complete CPU 0 instructions: 10000002 cycles: 2500207 (Simulation time: 0 hr 0 min 38 sec) 

Heartbeat CPU 0 instructions: 20000000 cycles: 27341429 heartbeat IPC: 0.402557 cumulative IPC: 0.402557 (Simulation time: 0 hr 2 min 3 sec) 
Heartbeat CPU 0 instructions: 30000002 cycles: 52493684 heartbeat IPC: 0.397579 cumulative IPC: 0.400052 (Simulation time: 0 hr 3 min 29 sec) 
Heartbeat CPU 0 instructions: 40000000 cycles: 77167329 heartbeat IPC: 0.405291 cumulative IPC: 0.401783 (Simulation time: 0 hr 4 min 53 sec) 
Heartbeat CPU 0 instructions: 50000002 cycles: 102294481 heartbeat IPC: 0.397976 cumulative IPC: 0.400825 (Simulation time: 0 hr 6 min 15 sec) 
Heartbeat CPU 0 instructions: 60000001 cycles: 128765950 heartbeat IPC: 0.377765 cumulative IPC: 0.39599 (Simulation time: 0 hr 7 min 47 sec) 
Heartbeat CPU 0 instructions: 70000002 cycles: 154866436 heartbeat IPC: 0.383135 cumulative IPC: 0.393788 (Simulation time: 0 hr 9 min 10 sec) 
Heartbeat CPU 0 instructions: 80000003 cycles: 181041347 heartbeat IPC: 0.382045 cumulative IPC: 0.392067 (Simulation time: 0 hr 10 min 43 sec) 
Heartbeat CPU 0 instructions: 90000000 cycles: 207560390 heartbeat IPC: 0.377087 cumulative IPC: 0.390129 (Simulation time: 0 hr 12 min 7 sec) 
Heartbeat CPU 0 instructions: 100000000 cycles: 233865290 heartbeat IPC: 0.380157 cumulative IPC: 0.388996 (Simulation time: 0 hr 13 min 41 sec) 
Heartbeat CPU 0 instructions: 110000000 cycles: 258710161 heartbeat IPC: 0.402498 cumulative IPC: 0.390305 (Simulation time: 0 hr 15 min 9 sec) 
Finished CPU 0 instructions: 100000000 cycles: 256209956 cumulative IPC: 0.390305 (Simulation time: 0 hr 15 min 9 sec) 

ChampSim completed all CPUs

Region of Interest Statistics

CPU 0 cumulative IPC: 0.390305 instructions: 100000000 cycles: 256209956
cpu0_DTLB TOTAL     ACCESS:   23842055  HIT:   21944974  MISS:    1897081
cpu0_DTLB LOAD      ACCESS:   13874520  HIT:   12293372  MISS:    1581148
cpu0_DTLB RFO       ACCESS:    9967535  HIT:    9651602  MISS:     315933
cpu0_DTLB PREFETCH  ACCESS:          0  HIT:          0  MISS:          0
cpu0_DTLB WRITEBACK ACCESS:          0  HIT:          0  MISS:          0
cpu0_DTLB TRANSLATION ACCESS:          0  HIT:          0  MISS:          0
cpu0_DTLB PREFETCH  REQUESTED:          0  ISSUED:          0  USEFUL:          0  USELESS:          0
cpu0_DTLB AVERAGE MISS LATENCY: 13.1244 cycles
cpu0_ITLB TOTAL     ACCESS:   11128472  HIT:   11093105  MISS:      35367
cpu0_ITLB LOAD      ACCESS:   11128472  HIT:   11093105  MISS:      35367
cpu0_ITLB RFO       ACCESS:          0  HIT:          0  MISS:          0
cpu0_ITLB PREFETCH  ACCESS:          0  HIT:          0  MISS:          0
cpu0_ITLB WRITEBACK ACCESS:          0  HIT:          0  MISS:          0
cpu0_ITLB TRANSLATION ACCESS:          0  HIT:          0  MISS:          0
cpu0_ITLB PREFETCH  REQUESTED:          0  ISSUED:          0  USEFUL:          0  USELESS:          0
cpu0_ITLB AVERAGE MISS LATENCY: 9.25702 cycles
cpu0_L1I TOTAL     ACCESS:    8347495  HIT:    8341148  MISS:       6347
cpu0_L1I LOAD      ACCESS:    8347495  HIT:    8341148  MISS:       6347
cpu0_L1I RFO       ACCESS:          0  HIT:          0  MISS:          0
cpu0_L1I PREFETCH  ACCESS:          0  HIT:          0  MISS:          0
cpu0_L1I WRITEBACK ACCESS:          0  HIT:          0  MISS:          0
cpu0_L1I TRANSLATION ACCESS:          0  HIT:          0  MISS:          0
cpu0_L1I PREFETCH  REQUESTED:          0  ISSUED:          0  USEFUL:          0  USELESS:          0
cpu0_L1I AVERAGE MISS LATENCY: 58.6579 cycles
cpu0_STLB TOTAL     ACCESS:    1932448  HIT:    1457249  MISS:     475199
cpu0_STLB LOAD      ACCESS:    1616515  HIT:    1262592  MISS:     353923
cpu0_STLB RFO       ACCESS:     315933  HIT:     194657  MISS:     121276
cpu0_STLB PREFETCH  ACCESS:          0  HIT:          0  MISS:          0
cpu0_STLB WRITEBACK ACCESS:          0  HIT:          0  MISS:          0
cpu0_STLB TRANSLATION ACCESS:          0  HIT:          0  MISS:          0
cpu0_STLB PREFETCH  REQUESTED:          0  ISSUED:          0  USEFUL:          0  USELESS:          0
cpu0_STLB AVERAGE MISS LATENCY: 16.0137 cycles
cpu0_L1D TOTAL     ACCESS:   31445335  HIT:   28947440  MISS:    2497895
cpu0_L1D LOAD      ACCESS:   15706283  HIT:   13523546  MISS:    2182737
cpu0_L1D RFO       ACCESS:   15298612  HIT:   14987959  MISS:     310653
cpu0_L1D PREFETCH  ACCESS:          0  HIT:          0  MISS:          0
cpu0_L1D WRITEBACK ACCESS:          0  HIT:          0  MISS:          0
cpu0_L1D TRANSLATION ACCESS:     440440  HIT:     435935  MISS:       4505
cpu0_L1D PREFETCH  REQUESTED:          0  ISSUED:          0  USEFUL:          0  USELESS:          0
cpu0_L1D AVERAGE MISS LATENCY: 143.761 cycles
cpu0_L2C TOTAL     ACCESS:    3581326  HIT:    1431333  MISS:    2149993
cpu0_L2C LOAD      ACCESS:    2189045  HIT:     330855  MISS:    1858190
cpu0_L2C RFO       ACCESS:     310653  HIT:      22224  MISS:     288429
cpu0_L2C PREFETCH  ACCESS:          0  HIT:          0  MISS:          0
cpu0_L2C WRITEBACK ACCESS:    1077123  HIT:    1074849  MISS:       2274
cpu0_L2C TRANSLATION ACCESS:       4505  HIT:       3405  MISS:       1100
cpu0_L2C PREFETCH  REQUESTED:          0  ISSUED:          0  USEFUL:          0  USELESS:          0
cpu0_L2C AVERAGE MISS LATENCY: 154.226 cycles
LLC TOTAL     ACCESS:    3079055  HIT:    1062987  MISS:    2016068
LLC LOAD      ACCESS:    1858189  HIT:     433166  MISS:    1425023
LLC RFO       ACCESS:     288429  HIT:      66461  MISS:     221968
LLC PREFETCH  ACCESS:          0  HIT:          0  MISS:          0
LLC WRITEBACK ACCESS:     931337  HIT:     562326  MISS:     369011
LLC TRANSLATION ACCESS:       1100  HIT:       1034  MISS:         66
LLC PREFETCH  REQUESTED:          0  ISSUED:          0  USEFUL:          0  USELESS:          0
LLC AVERAGE MISS LATENCY: 142.099 cycles
Insertion Distribution: 
	LOAD 161818 0 216464 1201736 
	RFO 49730 0 97863 96634 
	PREF 0 0 0 0 
	WRITEBACK 0 0 0 401338 
	 9 0 51 31 
Total Prefetch Downgrades: 0

DRAM Statistics
 CHANNEL 0
 RQ ROW_BUFFER_HIT:      93243  ROW_BUFFER_MISS:    1553706
 DBUS AVG_CONGESTED_CYCLE:     3.9201
 WQ ROW_BUFFER_HIT:     172133  ROW_BUFFER_MISS:     505095  FULL:          0


CPU 0 Branch Prediction Accuracy: 94.4212% MPKI: 13.4017 Average ROB Occupancy at Mispredict: 52.3807
Branch type MPKI
BRANCH_DIRECT_JUMP: 0.00017
BRANCH_INDIRECT: 0.04543
BRANCH_CONDITIONAL: 13.2857
BRANCH_DIRECT_CALL: 8e-05
BRANCH_INDIRECT_CALL: 0.04734
BRANCH_RETURN: 0.02301

