
*** ChampSim Multicore Out-of-Order Simulator ***

Warmup Instructions: 10000000
Simulation Instructions: 100000000
Number of CPUs: 1
Off-chip DRAM Size: 4 GiB Channels: 1 Width: 64-bit Data Rate: 3200 MT/s

VirtualMemory physical capacity: 8588881920 num_ppages: 2096895
VirtualMemory page size: 4096 log2_page_size: 12

CPU 0 runs /datasets/cs240c-wi22-a00-public/data/Assignment2/cactusADM_1039B.trace.xz
CPU 0 Bimodal branch predictor
Basic BTB sets: 1024 ways: 8 indirect buffer size: 4096 RAS size: 64
Initialize SRRIP state
Heartbeat CPU 0 instructions: 10000004 cycles: 3647107 heartbeat IPC: 2.7419 cumulative IPC: 2.7419 (Simulation time: 0 hr 0 min 54 sec) 

Warmup complete CPU 0 instructions: 10000004 cycles: 3647107 (Simulation time: 0 hr 0 min 54 sec) 

Heartbeat CPU 0 instructions: 20000004 cycles: 13815719 heartbeat IPC: 0.983418 cumulative IPC: 0.983418 (Simulation time: 0 hr 2 min 32 sec) 
Heartbeat CPU 0 instructions: 30000002 cycles: 23542493 heartbeat IPC: 1.02809 cumulative IPC: 1.00526 (Simulation time: 0 hr 4 min 0 sec) 
Heartbeat CPU 0 instructions: 40000000 cycles: 33322055 heartbeat IPC: 1.02254 cumulative IPC: 1.01095 (Simulation time: 0 hr 5 min 29 sec) 
Heartbeat CPU 0 instructions: 50000004 cycles: 42114034 heartbeat IPC: 1.1374 cumulative IPC: 1.03985 (Simulation time: 0 hr 6 min 55 sec) 
Heartbeat CPU 0 instructions: 60000004 cycles: 47982349 heartbeat IPC: 1.70407 cumulative IPC: 1.12777 (Simulation time: 0 hr 8 min 4 sec) 
Heartbeat CPU 0 instructions: 70000002 cycles: 56730346 heartbeat IPC: 1.14312 cumulative IPC: 1.1303 (Simulation time: 0 hr 9 min 29 sec) 
Heartbeat CPU 0 instructions: 80000004 cycles: 65398322 heartbeat IPC: 1.15367 cumulative IPC: 1.13358 (Simulation time: 0 hr 10 min 53 sec) 
Heartbeat CPU 0 instructions: 90000004 cycles: 73977393 heartbeat IPC: 1.16563 cumulative IPC: 1.13749 (Simulation time: 0 hr 12 min 14 sec) 
Heartbeat CPU 0 instructions: 100000000 cycles: 79781144 heartbeat IPC: 1.72302 cumulative IPC: 1.18213 (Simulation time: 0 hr 13 min 23 sec) 
Heartbeat CPU 0 instructions: 110000003 cycles: 88223514 heartbeat IPC: 1.1845 cumulative IPC: 1.18236 (Simulation time: 0 hr 14 min 48 sec) 
Finished CPU 0 instructions: 100000004 cycles: 84576408 cumulative IPC: 1.18236 (Simulation time: 0 hr 14 min 48 sec) 

ChampSim completed all CPUs

Region of Interest Statistics

CPU 0 cumulative IPC: 1.18236 instructions: 100000004 cycles: 84576408
cpu0_DTLB TOTAL     ACCESS:   22778662  HIT:   20726202  MISS:    2052460
cpu0_DTLB LOAD      ACCESS:   18878986  HIT:   17444155  MISS:    1434831
cpu0_DTLB RFO       ACCESS:    3899676  HIT:    3282047  MISS:     617629
cpu0_DTLB PREFETCH  ACCESS:          0  HIT:          0  MISS:          0
cpu0_DTLB WRITEBACK ACCESS:          0  HIT:          0  MISS:          0
cpu0_DTLB TRANSLATION ACCESS:          0  HIT:          0  MISS:          0
cpu0_DTLB PREFETCH  REQUESTED:          0  ISSUED:          0  USEFUL:          0  USELESS:          0
cpu0_DTLB AVERAGE MISS LATENCY: 17.8253 cycles
cpu0_ITLB TOTAL     ACCESS:    1451483  HIT:    1451483  MISS:          0
cpu0_ITLB LOAD      ACCESS:    1451483  HIT:    1451483  MISS:          0
cpu0_ITLB RFO       ACCESS:          0  HIT:          0  MISS:          0
cpu0_ITLB PREFETCH  ACCESS:          0  HIT:          0  MISS:          0
cpu0_ITLB WRITEBACK ACCESS:          0  HIT:          0  MISS:          0
cpu0_ITLB TRANSLATION ACCESS:          0  HIT:          0  MISS:          0
cpu0_ITLB PREFETCH  REQUESTED:          0  ISSUED:          0  USEFUL:          0  USELESS:          0
cpu0_ITLB AVERAGE MISS LATENCY: -nan cycles
cpu0_L1I TOTAL     ACCESS:    8110231  HIT:    8110228  MISS:          3
cpu0_L1I LOAD      ACCESS:    8110231  HIT:    8110228  MISS:          3
cpu0_L1I RFO       ACCESS:          0  HIT:          0  MISS:          0
cpu0_L1I PREFETCH  ACCESS:          0  HIT:          0  MISS:          0
cpu0_L1I WRITEBACK ACCESS:          0  HIT:          0  MISS:          0
cpu0_L1I TRANSLATION ACCESS:          0  HIT:          0  MISS:          0
cpu0_L1I PREFETCH  REQUESTED:          0  ISSUED:          0  USEFUL:          0  USELESS:          0
cpu0_L1I AVERAGE MISS LATENCY: 482 cycles
cpu0_STLB TOTAL     ACCESS:    2052460  HIT:    1135159  MISS:     917301
cpu0_STLB LOAD      ACCESS:    1434831  HIT:     838978  MISS:     595853
cpu0_STLB RFO       ACCESS:     617629  HIT:     296181  MISS:     321448
cpu0_STLB PREFETCH  ACCESS:          0  HIT:          0  MISS:          0
cpu0_STLB WRITEBACK ACCESS:          0  HIT:          0  MISS:          0
cpu0_STLB TRANSLATION ACCESS:          0  HIT:          0  MISS:          0
cpu0_STLB PREFETCH  REQUESTED:          0  ISSUED:          0  USEFUL:          0  USELESS:          0
cpu0_STLB AVERAGE MISS LATENCY: 19.5805 cycles
cpu0_L1D TOTAL     ACCESS:   37527624  HIT:   36203941  MISS:    1323683
cpu0_L1D LOAD      ACCESS:   25701166  HIT:   24648764  MISS:    1052402
cpu0_L1D RFO       ACCESS:   10909994  HIT:   10644623  MISS:     265371
cpu0_L1D PREFETCH  ACCESS:          0  HIT:          0  MISS:          0
cpu0_L1D WRITEBACK ACCESS:          0  HIT:          0  MISS:          0
cpu0_L1D TRANSLATION ACCESS:     916464  HIT:     910554  MISS:       5910
cpu0_L1D PREFETCH  REQUESTED:          0  ISSUED:          0  USEFUL:          0  USELESS:          0
cpu0_L1D AVERAGE MISS LATENCY: 334.98 cycles
cpu0_L2C TOTAL     ACCESS:    1592942  HIT:     694133  MISS:     898809
cpu0_L2C LOAD      ACCESS:    1052405  HIT:     419483  MISS:     632922
cpu0_L2C RFO       ACCESS:     265371  HIT:          0  MISS:     265371
cpu0_L2C PREFETCH  ACCESS:          0  HIT:          0  MISS:          0
cpu0_L2C WRITEBACK ACCESS:     269256  HIT:     269052  MISS:        204
cpu0_L2C TRANSLATION ACCESS:       5910  HIT:       5598  MISS:        312
cpu0_L2C PREFETCH  REQUESTED:          0  ISSUED:          0  USEFUL:          0  USELESS:          0
cpu0_L2C AVERAGE MISS LATENCY: 477.11 cycles
LLC TOTAL     ACCESS:    1165760  HIT:     339799  MISS:     825961
LLC LOAD      ACCESS:     632922  HIT:     183272  MISS:     449650
LLC RFO       ACCESS:     265371  HIT:      48358  MISS:     217013
LLC PREFETCH  ACCESS:          0  HIT:          0  MISS:          0
LLC WRITEBACK ACCESS:     267155  HIT:     108052  MISS:     159103
LLC TRANSLATION ACCESS:        312  HIT:        117  MISS:        195
LLC PREFETCH  REQUESTED:          0  ISSUED:          0  USEFUL:          0  USELESS:          0
LLC AVERAGE MISS LATENCY: 496.342 cycles
Insertion Distribution: 
	LOAD 11112 0 72051 416563 
	RFO 31438 0 34865 161991 
	PREF 0 0 0 0 
	WRITEBACK 0 0 0 159622 
	 1 0 65 171 
Total Prefetch Downgrades: 0

DRAM Statistics
 CHANNEL 0
 RQ ROW_BUFFER_HIT:       7705  ROW_BUFFER_MISS:     659112
 DBUS AVG_CONGESTED_CYCLE:    3.97572
 WQ ROW_BUFFER_HIT:      12655  ROW_BUFFER_MISS:     197524  FULL:        270


CPU 0 Branch Prediction Accuracy: 97.7479% MPKI: 0.04701 Average ROB Occupancy at Mispredict: 283.917
Branch type MPKI
BRANCH_DIRECT_JUMP: 0
BRANCH_INDIRECT: 0
BRANCH_CONDITIONAL: 0.04701
BRANCH_DIRECT_CALL: 0
BRANCH_INDIRECT_CALL: 0
BRANCH_RETURN: 0

