
*** ChampSim Multicore Out-of-Order Simulator ***

Warmup Instructions: 10000000
Simulation Instructions: 100000000
Number of CPUs: 1
Off-chip DRAM Size: 4 GiB Channels: 1 Width: 64-bit Data Rate: 3200 MT/s

VirtualMemory physical capacity: 8588881920 num_ppages: 2096895
VirtualMemory page size: 4096 log2_page_size: 12

CPU 0 runs /datasets/cs240c-wi22-a00-public/data/Assignment2/cactusADM_1495B.trace.xz
CPU 0 Bimodal branch predictor
Basic BTB sets: 1024 ways: 8 indirect buffer size: 4096 RAS size: 64
Initialize SRRIP state
Heartbeat CPU 0 instructions: 10000001 cycles: 3702091 heartbeat IPC: 2.70118 cumulative IPC: 2.70118 (Simulation time: 0 hr 0 min 59 sec) 

Warmup complete CPU 0 instructions: 10000001 cycles: 3702091 (Simulation time: 0 hr 0 min 59 sec) 

Heartbeat CPU 0 instructions: 20000001 cycles: 11254274 heartbeat IPC: 1.32412 cumulative IPC: 1.32412 (Simulation time: 0 hr 2 min 32 sec) 
Heartbeat CPU 0 instructions: 30000004 cycles: 20105483 heartbeat IPC: 1.12979 cumulative IPC: 1.21926 (Simulation time: 0 hr 4 min 11 sec) 
Heartbeat CPU 0 instructions: 40000001 cycles: 29515504 heartbeat IPC: 1.0627 cumulative IPC: 1.16219 (Simulation time: 0 hr 5 min 51 sec) 
Heartbeat CPU 0 instructions: 50000000 cycles: 38355811 heartbeat IPC: 1.13118 cumulative IPC: 1.15428 (Simulation time: 0 hr 7 min 28 sec) 
Heartbeat CPU 0 instructions: 60000003 cycles: 45440528 heartbeat IPC: 1.41149 cumulative IPC: 1.19794 (Simulation time: 0 hr 8 min 56 sec) 
Heartbeat CPU 0 instructions: 70000000 cycles: 53336632 heartbeat IPC: 1.26645 cumulative IPC: 1.20884 (Simulation time: 0 hr 10 min 30 sec) 
Heartbeat CPU 0 instructions: 80000003 cycles: 62027092 heartbeat IPC: 1.15069 cumulative IPC: 1.20017 (Simulation time: 0 hr 12 min 8 sec) 
Heartbeat CPU 0 instructions: 90000002 cycles: 70801217 heartbeat IPC: 1.13971 cumulative IPC: 1.19227 (Simulation time: 0 hr 13 min 45 sec) 
Heartbeat CPU 0 instructions: 100000003 cycles: 79385275 heartbeat IPC: 1.16495 cumulative IPC: 1.18917 (Simulation time: 0 hr 15 min 22 sec) 
Heartbeat CPU 0 instructions: 110000001 cycles: 85302932 heartbeat IPC: 1.68986 cumulative IPC: 1.22548 (Simulation time: 0 hr 16 min 44 sec) 
Finished CPU 0 instructions: 100000000 cycles: 81600841 cumulative IPC: 1.22548 (Simulation time: 0 hr 16 min 44 sec) 

ChampSim completed all CPUs

Region of Interest Statistics

CPU 0 cumulative IPC: 1.22548 instructions: 100000000 cycles: 81600841
cpu0_DTLB TOTAL     ACCESS:   21493068  HIT:   19720631  MISS:    1772437
cpu0_DTLB LOAD      ACCESS:   17676294  HIT:   16467003  MISS:    1209291
cpu0_DTLB RFO       ACCESS:    3816774  HIT:    3253628  MISS:     563146
cpu0_DTLB PREFETCH  ACCESS:          0  HIT:          0  MISS:          0
cpu0_DTLB WRITEBACK ACCESS:          0  HIT:          0  MISS:          0
cpu0_DTLB TRANSLATION ACCESS:          0  HIT:          0  MISS:          0
cpu0_DTLB PREFETCH  REQUESTED:          0  ISSUED:          0  USEFUL:          0  USELESS:          0
cpu0_DTLB AVERAGE MISS LATENCY: 16.7507 cycles
cpu0_ITLB TOTAL     ACCESS:    1614831  HIT:    1614831  MISS:          0
cpu0_ITLB LOAD      ACCESS:    1614831  HIT:    1614831  MISS:          0
cpu0_ITLB RFO       ACCESS:          0  HIT:          0  MISS:          0
cpu0_ITLB PREFETCH  ACCESS:          0  HIT:          0  MISS:          0
cpu0_ITLB WRITEBACK ACCESS:          0  HIT:          0  MISS:          0
cpu0_ITLB TRANSLATION ACCESS:          0  HIT:          0  MISS:          0
cpu0_ITLB PREFETCH  REQUESTED:          0  ISSUED:          0  USEFUL:          0  USELESS:          0
cpu0_ITLB AVERAGE MISS LATENCY: -nan cycles
cpu0_L1I TOTAL     ACCESS:    8434965  HIT:    8434965  MISS:          0
cpu0_L1I LOAD      ACCESS:    8434965  HIT:    8434965  MISS:          0
cpu0_L1I RFO       ACCESS:          0  HIT:          0  MISS:          0
cpu0_L1I PREFETCH  ACCESS:          0  HIT:          0  MISS:          0
cpu0_L1I WRITEBACK ACCESS:          0  HIT:          0  MISS:          0
cpu0_L1I TRANSLATION ACCESS:          0  HIT:          0  MISS:          0
cpu0_L1I PREFETCH  REQUESTED:          0  ISSUED:          0  USEFUL:          0  USELESS:          0
cpu0_L1I AVERAGE MISS LATENCY: -nan cycles
cpu0_STLB TOTAL     ACCESS:    1772437  HIT:     907695  MISS:     864742
cpu0_STLB LOAD      ACCESS:    1209291  HIT:     649730  MISS:     559561
cpu0_STLB RFO       ACCESS:     563146  HIT:     257965  MISS:     305181
cpu0_STLB PREFETCH  ACCESS:          0  HIT:          0  MISS:          0
cpu0_STLB WRITEBACK ACCESS:          0  HIT:          0  MISS:          0
cpu0_STLB TRANSLATION ACCESS:          0  HIT:          0  MISS:          0
cpu0_STLB PREFETCH  REQUESTED:          0  ISSUED:          0  USEFUL:          0  USELESS:          0
cpu0_STLB AVERAGE MISS LATENCY: 15.7624 cycles
cpu0_L1D TOTAL     ACCESS:   37496404  HIT:   36208218  MISS:    1288186
cpu0_L1D LOAD      ACCESS:   25703934  HIT:   24667912  MISS:    1036022
cpu0_L1D RFO       ACCESS:   10928423  HIT:   10683191  MISS:     245232
cpu0_L1D PREFETCH  ACCESS:          0  HIT:          0  MISS:          0
cpu0_L1D WRITEBACK ACCESS:          0  HIT:          0  MISS:          0
cpu0_L1D TRANSLATION ACCESS:     864047  HIT:     857115  MISS:       6932
cpu0_L1D PREFETCH  REQUESTED:          0  ISSUED:          0  USEFUL:          0  USELESS:          0
cpu0_L1D AVERAGE MISS LATENCY: 283.462 cycles
cpu0_L2C TOTAL     ACCESS:    1536968  HIT:     676805  MISS:     860163
cpu0_L2C LOAD      ACCESS:    1036022  HIT:     421600  MISS:     614422
cpu0_L2C RFO       ACCESS:     245232  HIT:          0  MISS:     245232
cpu0_L2C PREFETCH  ACCESS:          0  HIT:          0  MISS:          0
cpu0_L2C WRITEBACK ACCESS:     248782  HIT:     248593  MISS:        189
cpu0_L2C TRANSLATION ACCESS:       6932  HIT:       6612  MISS:        320
cpu0_L2C PREFETCH  REQUESTED:          0  ISSUED:          0  USEFUL:          0  USELESS:          0
cpu0_L2C AVERAGE MISS LATENCY: 408.021 cycles
LLC TOTAL     ACCESS:    1105582  HIT:     325570  MISS:     780012
LLC LOAD      ACCESS:     614422  HIT:     165144  MISS:     449278
LLC RFO       ACCESS:     245232  HIT:      69257  MISS:     175975
LLC PREFETCH  ACCESS:          0  HIT:          0  MISS:          0
LLC WRITEBACK ACCESS:     245608  HIT:      91135  MISS:     154473
LLC TRANSLATION ACCESS:        320  HIT:         34  MISS:        286
LLC PREFETCH  REQUESTED:          0  ISSUED:          0  USEFUL:          0  USELESS:          0
LLC AVERAGE MISS LATENCY: 426.794 cycles
Insertion Distribution: 
	LOAD 48500 0 73210 395317 
	RFO 14200 0 25950 166472 
	PREF 0 0 0 0 
	WRITEBACK 0 0 0 163011 
	 3 0 64 269 
Total Prefetch Downgrades: 0

DRAM Statistics
 CHANNEL 0
 RQ ROW_BUFFER_HIT:       5694  ROW_BUFFER_MISS:     619841
 DBUS AVG_CONGESTED_CYCLE:    3.97704
 WQ ROW_BUFFER_HIT:      15084  ROW_BUFFER_MISS:     193643  FULL:        296


CPU 0 Branch Prediction Accuracy: 97.8411% MPKI: 0.04284 Average ROB Occupancy at Mispredict: 285.611
Branch type MPKI
BRANCH_DIRECT_JUMP: 0
BRANCH_INDIRECT: 0
BRANCH_CONDITIONAL: 0.04284
BRANCH_DIRECT_CALL: 0
BRANCH_INDIRECT_CALL: 0
BRANCH_RETURN: 0

