
*** ChampSim Multicore Out-of-Order Simulator ***

Warmup Instructions: 10000000
Simulation Instructions: 100000000
Number of CPUs: 1
Off-chip DRAM Size: 4 GiB Channels: 1 Width: 64-bit Data Rate: 3200 MT/s

VirtualMemory physical capacity: 8588881920 num_ppages: 2096895
VirtualMemory page size: 4096 log2_page_size: 12

CPU 0 runs /datasets/cs240c-wi22-a00-public/data/Assignment2/omnetpp_17B.trace.xz
CPU 0 Bimodal branch predictor
Basic BTB sets: 1024 ways: 8 indirect buffer size: 4096 RAS size: 64
Initialize SRRIP state
Heartbeat CPU 0 instructions: 10000002 cycles: 2500125 heartbeat IPC: 3.9998 cumulative IPC: 3.9998 (Simulation time: 0 hr 0 min 23 sec) 

Warmup complete CPU 0 instructions: 10000002 cycles: 2500125 (Simulation time: 0 hr 0 min 23 sec) 

Heartbeat CPU 0 instructions: 20000003 cycles: 8137858 heartbeat IPC: 1.77376 cumulative IPC: 1.77376 (Simulation time: 0 hr 0 min 47 sec) 
Heartbeat CPU 0 instructions: 30000000 cycles: 14720880 heartbeat IPC: 1.51906 cumulative IPC: 1.63656 (Simulation time: 0 hr 1 min 21 sec) 
Heartbeat CPU 0 instructions: 40000001 cycles: 21479751 heartbeat IPC: 1.47954 cumulative IPC: 1.58064 (Simulation time: 0 hr 1 min 57 sec) 
Heartbeat CPU 0 instructions: 50000001 cycles: 27356914 heartbeat IPC: 1.7015 cumulative IPC: 1.60922 (Simulation time: 0 hr 2 min 25 sec) 
Heartbeat CPU 0 instructions: 60000001 cycles: 33322552 heartbeat IPC: 1.67627 cumulative IPC: 1.6222 (Simulation time: 0 hr 2 min 55 sec) 
Heartbeat CPU 0 instructions: 70000000 cycles: 40017037 heartbeat IPC: 1.49377 cumulative IPC: 1.59928 (Simulation time: 0 hr 3 min 32 sec) 
Heartbeat CPU 0 instructions: 80000002 cycles: 46737713 heartbeat IPC: 1.48795 cumulative IPC: 1.58236 (Simulation time: 0 hr 4 min 8 sec) 
Heartbeat CPU 0 instructions: 90000003 cycles: 53444608 heartbeat IPC: 1.491 cumulative IPC: 1.57034 (Simulation time: 0 hr 4 min 42 sec) 
Heartbeat CPU 0 instructions: 100000002 cycles: 58792903 heartbeat IPC: 1.86975 cumulative IPC: 1.59878 (Simulation time: 0 hr 5 min 3 sec) 
Heartbeat CPU 0 instructions: 110000001 cycles: 65409021 heartbeat IPC: 1.51146 cumulative IPC: 1.5896 (Simulation time: 0 hr 5 min 37 sec) 
Finished CPU 0 instructions: 100000004 cycles: 62908903 cumulative IPC: 1.5896 (Simulation time: 0 hr 5 min 37 sec) 

ChampSim completed all CPUs

Region of Interest Statistics

CPU 0 cumulative IPC: 1.5896 instructions: 100000004 cycles: 62908903
cpu0_DTLB TOTAL     ACCESS:   10183703  HIT:    9118900  MISS:    1064803
cpu0_DTLB LOAD      ACCESS:    8246400  HIT:    7183477  MISS:    1062923
cpu0_DTLB RFO       ACCESS:    1937303  HIT:    1935423  MISS:       1880
cpu0_DTLB PREFETCH  ACCESS:          0  HIT:          0  MISS:          0
cpu0_DTLB WRITEBACK ACCESS:          0  HIT:          0  MISS:          0
cpu0_DTLB TRANSLATION ACCESS:          0  HIT:          0  MISS:          0
cpu0_DTLB PREFETCH  REQUESTED:          0  ISSUED:          0  USEFUL:          0  USELESS:          0
cpu0_DTLB AVERAGE MISS LATENCY: 19.6785 cycles
cpu0_ITLB TOTAL     ACCESS:    8332913  HIT:    8330856  MISS:       2057
cpu0_ITLB LOAD      ACCESS:    8332913  HIT:    8330856  MISS:       2057
cpu0_ITLB RFO       ACCESS:          0  HIT:          0  MISS:          0
cpu0_ITLB PREFETCH  ACCESS:          0  HIT:          0  MISS:          0
cpu0_ITLB WRITEBACK ACCESS:          0  HIT:          0  MISS:          0
cpu0_ITLB TRANSLATION ACCESS:          0  HIT:          0  MISS:          0
cpu0_ITLB PREFETCH  REQUESTED:          0  ISSUED:          0  USEFUL:          0  USELESS:          0
cpu0_ITLB AVERAGE MISS LATENCY: 15.6315 cycles
cpu0_L1I TOTAL     ACCESS:    1054835  HIT:    1050495  MISS:       4340
cpu0_L1I LOAD      ACCESS:    1054835  HIT:    1050495  MISS:       4340
cpu0_L1I RFO       ACCESS:          0  HIT:          0  MISS:          0
cpu0_L1I PREFETCH  ACCESS:          0  HIT:          0  MISS:          0
cpu0_L1I WRITEBACK ACCESS:          0  HIT:          0  MISS:          0
cpu0_L1I TRANSLATION ACCESS:          0  HIT:          0  MISS:          0
cpu0_L1I PREFETCH  REQUESTED:          0  ISSUED:          0  USEFUL:          0  USELESS:          0
cpu0_L1I AVERAGE MISS LATENCY: 59.6671 cycles
cpu0_STLB TOTAL     ACCESS:    1066860  HIT:      12745  MISS:    1054115
cpu0_STLB LOAD      ACCESS:    1064980  HIT:      11381  MISS:    1053599
cpu0_STLB RFO       ACCESS:       1880  HIT:       1364  MISS:        516
cpu0_STLB PREFETCH  ACCESS:          0  HIT:          0  MISS:          0
cpu0_STLB WRITEBACK ACCESS:          0  HIT:          0  MISS:          0
cpu0_STLB TRANSLATION ACCESS:          0  HIT:          0  MISS:          0
cpu0_STLB PREFETCH  REQUESTED:          0  ISSUED:          0  USEFUL:          0  USELESS:          0
cpu0_STLB AVERAGE MISS LATENCY: 10.4 cycles
cpu0_L1D TOTAL     ACCESS:   10261766  HIT:    8507326  MISS:    1754440
cpu0_L1D LOAD      ACCESS:    6422570  HIT:    4682282  MISS:    1740288
cpu0_L1D RFO       ACCESS:    3337528  HIT:    3324469  MISS:      13059
cpu0_L1D PREFETCH  ACCESS:          0  HIT:          0  MISS:          0
cpu0_L1D WRITEBACK ACCESS:          0  HIT:          0  MISS:          0
cpu0_L1D TRANSLATION ACCESS:     501668  HIT:     500575  MISS:       1093
cpu0_L1D PREFETCH  REQUESTED:          0  ISSUED:          0  USEFUL:          0  USELESS:          0
cpu0_L1D AVERAGE MISS LATENCY: 101.617 cycles
cpu0_L2C TOTAL     ACCESS:    1775590  HIT:      23303  MISS:    1752287
cpu0_L2C LOAD      ACCESS:    1744628  HIT:       5922  MISS:    1738706
cpu0_L2C RFO       ACCESS:      13059  HIT:        137  MISS:      12922
cpu0_L2C PREFETCH  ACCESS:          0  HIT:          0  MISS:          0
cpu0_L2C WRITEBACK ACCESS:      16810  HIT:      16810  MISS:          0
cpu0_L2C TRANSLATION ACCESS:       1093  HIT:        434  MISS:        659
cpu0_L2C PREFETCH  REQUESTED:          0  ISSUED:          0  USEFUL:          0  USELESS:          0
cpu0_L2C AVERAGE MISS LATENCY: 90.2286 cycles
LLC TOTAL     ACCESS:    1768993  HIT:    1488294  MISS:     280699
LLC LOAD      ACCESS:    1738706  HIT:    1473314  MISS:     265392
LLC RFO       ACCESS:      12922  HIT:       2659  MISS:      10263
LLC PREFETCH  ACCESS:          0  HIT:          0  MISS:          0
LLC WRITEBACK ACCESS:      16706  HIT:      11809  MISS:       4897
LLC TRANSLATION ACCESS:        659  HIT:        512  MISS:        147
LLC PREFETCH  REQUESTED:          0  ISSUED:          0  USEFUL:          0  USELESS:          0
LLC AVERAGE MISS LATENCY: 432.114 cycles
Insertion Distribution: 
	LOAD 13081 0 54160 273278 
	RFO 0 0 1999 9342 
	PREF 0 0 0 0 
	WRITEBACK 0 0 0 4954 
	 2 0 112 71 
Total Prefetch Downgrades: 0

DRAM Statistics
 CHANNEL 0
 RQ ROW_BUFFER_HIT:       7317  ROW_BUFFER_MISS:     268426
 DBUS AVG_CONGESTED_CYCLE:    3.98153
 WQ ROW_BUFFER_HIT:       2819  ROW_BUFFER_MISS:       8692  FULL:          0


CPU 0 Branch Prediction Accuracy: 97.6159% MPKI: 7.87238 Average ROB Occupancy at Mispredict: 63.224
Branch type MPKI
BRANCH_DIRECT_JUMP: 0.00032
BRANCH_INDIRECT: 0.08474
BRANCH_CONDITIONAL: 7.75802
BRANCH_DIRECT_CALL: 0.00068
BRANCH_INDIRECT_CALL: 0.00292
BRANCH_RETURN: 0.0257

