
*** ChampSim Multicore Out-of-Order Simulator ***

Warmup Instructions: 10000000
Simulation Instructions: 100000000
Number of CPUs: 1
Off-chip DRAM Size: 4 GiB Channels: 1 Width: 64-bit Data Rate: 3200 MT/s

VirtualMemory physical capacity: 8588881920 num_ppages: 2096895
VirtualMemory page size: 4096 log2_page_size: 12

CPU 0 runs /datasets/cs240c-wi22-a00-public/data/Assignment2/soplex_66B.trace.xz
CPU 0 Bimodal branch predictor
Basic BTB sets: 1024 ways: 8 indirect buffer size: 4096 RAS size: 64
Initialize SRRIP state
Heartbeat CPU 0 instructions: 10000001 cycles: 2688398 heartbeat IPC: 3.71969 cumulative IPC: 3.71969 (Simulation time: 0 hr 0 min 32 sec) 

Warmup complete CPU 0 instructions: 10000001 cycles: 2688398 (Simulation time: 0 hr 0 min 32 sec) 

Heartbeat CPU 0 instructions: 20000003 cycles: 27046572 heartbeat IPC: 0.41054 cumulative IPC: 0.41054 (Simulation time: 0 hr 1 min 52 sec) 
Heartbeat CPU 0 instructions: 30000001 cycles: 51043125 heartbeat IPC: 0.416726 cumulative IPC: 0.41361 (Simulation time: 0 hr 3 min 13 sec) 
Heartbeat CPU 0 instructions: 40000002 cycles: 75333044 heartbeat IPC: 0.411693 cumulative IPC: 0.412969 (Simulation time: 0 hr 4 min 34 sec) 
Heartbeat CPU 0 instructions: 50000002 cycles: 108164020 heartbeat IPC: 0.30459 cumulative IPC: 0.379235 (Simulation time: 0 hr 6 min 32 sec) 
Heartbeat CPU 0 instructions: 60000002 cycles: 143330159 heartbeat IPC: 0.284364 cumulative IPC: 0.355513 (Simulation time: 0 hr 8 min 36 sec) 
Heartbeat CPU 0 instructions: 70000001 cycles: 169714119 heartbeat IPC: 0.379018 cumulative IPC: 0.359226 (Simulation time: 0 hr 10 min 8 sec) 
Heartbeat CPU 0 instructions: 80000001 cycles: 196309912 heartbeat IPC: 0.375999 cumulative IPC: 0.36153 (Simulation time: 0 hr 11 min 44 sec) 
Heartbeat CPU 0 instructions: 90000003 cycles: 220461505 heartbeat IPC: 0.414051 cumulative IPC: 0.367355 (Simulation time: 0 hr 13 min 6 sec) 
Heartbeat CPU 0 instructions: 100000000 cycles: 244871901 heartbeat IPC: 0.409661 cumulative IPC: 0.371619 (Simulation time: 0 hr 14 min 28 sec) 
Heartbeat CPU 0 instructions: 110000001 cycles: 269578307 heartbeat IPC: 0.404753 cumulative IPC: 0.374686 (Simulation time: 0 hr 15 min 53 sec) 
Finished CPU 0 instructions: 100000000 cycles: 266889909 cumulative IPC: 0.374686 (Simulation time: 0 hr 15 min 53 sec) 

ChampSim completed all CPUs

Region of Interest Statistics

CPU 0 cumulative IPC: 0.374686 instructions: 100000000 cycles: 266889909
cpu0_DTLB TOTAL     ACCESS:   19881042  HIT:   19303752  MISS:     577290
cpu0_DTLB LOAD      ACCESS:   14812752  HIT:   14355604  MISS:     457148
cpu0_DTLB RFO       ACCESS:    5068290  HIT:    4948148  MISS:     120142
cpu0_DTLB PREFETCH  ACCESS:          0  HIT:          0  MISS:          0
cpu0_DTLB WRITEBACK ACCESS:          0  HIT:          0  MISS:          0
cpu0_DTLB TRANSLATION ACCESS:          0  HIT:          0  MISS:          0
cpu0_DTLB PREFETCH  REQUESTED:          0  ISSUED:          0  USEFUL:          0  USELESS:          0
cpu0_DTLB AVERAGE MISS LATENCY: 16.8588 cycles
cpu0_ITLB TOTAL     ACCESS:    8265513  HIT:    8265495  MISS:         18
cpu0_ITLB LOAD      ACCESS:    8265513  HIT:    8265495  MISS:         18
cpu0_ITLB RFO       ACCESS:          0  HIT:          0  MISS:          0
cpu0_ITLB PREFETCH  ACCESS:          0  HIT:          0  MISS:          0
cpu0_ITLB WRITEBACK ACCESS:          0  HIT:          0  MISS:          0
cpu0_ITLB TRANSLATION ACCESS:          0  HIT:          0  MISS:          0
cpu0_ITLB PREFETCH  REQUESTED:          0  ISSUED:          0  USEFUL:          0  USELESS:          0
cpu0_ITLB AVERAGE MISS LATENCY: 298.111 cycles
cpu0_L1I TOTAL     ACCESS:    1900162  HIT:    1899301  MISS:        861
cpu0_L1I LOAD      ACCESS:    1900162  HIT:    1899301  MISS:        861
cpu0_L1I RFO       ACCESS:          0  HIT:          0  MISS:          0
cpu0_L1I PREFETCH  ACCESS:          0  HIT:          0  MISS:          0
cpu0_L1I WRITEBACK ACCESS:          0  HIT:          0  MISS:          0
cpu0_L1I TRANSLATION ACCESS:          0  HIT:          0  MISS:          0
cpu0_L1I PREFETCH  REQUESTED:          0  ISSUED:          0  USEFUL:          0  USELESS:          0
cpu0_L1I AVERAGE MISS LATENCY: 302.532 cycles
cpu0_STLB TOTAL     ACCESS:     577308  HIT:     474387  MISS:     102921
cpu0_STLB LOAD      ACCESS:     457166  HIT:     362085  MISS:      95081
cpu0_STLB RFO       ACCESS:     120142  HIT:     112302  MISS:       7840
cpu0_STLB PREFETCH  ACCESS:          0  HIT:          0  MISS:          0
cpu0_STLB WRITEBACK ACCESS:          0  HIT:          0  MISS:          0
cpu0_STLB TRANSLATION ACCESS:          0  HIT:          0  MISS:          0
cpu0_STLB PREFETCH  REQUESTED:          0  ISSUED:          0  USEFUL:          0  USELESS:          0
cpu0_STLB AVERAGE MISS LATENCY: 43.5377 cycles
cpu0_L1D TOTAL     ACCESS:   17087705  HIT:   12770645  MISS:    4317060
cpu0_L1D LOAD      ACCESS:   11097541  HIT:    7499206  MISS:    3598335
cpu0_L1D RFO       ACCESS:    5890097  HIT:    5174016  MISS:     716081
cpu0_L1D PREFETCH  ACCESS:          0  HIT:          0  MISS:          0
cpu0_L1D WRITEBACK ACCESS:          0  HIT:          0  MISS:          0
cpu0_L1D TRANSLATION ACCESS:     100067  HIT:      97423  MISS:       2644
cpu0_L1D PREFETCH  REQUESTED:          0  ISSUED:          0  USEFUL:          0  USELESS:          0
cpu0_L1D AVERAGE MISS LATENCY: 215 cycles
cpu0_L2C TOTAL     ACCESS:    6105400  HIT:    2608059  MISS:    3497341
cpu0_L2C LOAD      ACCESS:    3599067  HIT:     717355  MISS:    2881712
cpu0_L2C RFO       ACCESS:     716020  HIT:     101657  MISS:     614363
cpu0_L2C PREFETCH  ACCESS:          0  HIT:          0  MISS:          0
cpu0_L2C WRITEBACK ACCESS:    1787669  HIT:    1787129  MISS:        540
cpu0_L2C TRANSLATION ACCESS:       2644  HIT:       1918  MISS:        726
cpu0_L2C PREFETCH  REQUESTED:          0  ISSUED:          0  USEFUL:          0  USELESS:          0
cpu0_L2C AVERAGE MISS LATENCY: 251.695 cycles
LLC TOTAL     ACCESS:    4876937  HIT:    2346966  MISS:    2529971
LLC LOAD      ACCESS:    2881706  HIT:    1230014  MISS:    1651692
LLC RFO       ACCESS:     614363  HIT:     241580  MISS:     372783
LLC PREFETCH  ACCESS:          0  HIT:          0  MISS:          0
LLC WRITEBACK ACCESS:    1380142  HIT:     874879  MISS:     505263
LLC TRANSLATION ACCESS:        726  HIT:        493  MISS:        233
LLC PREFETCH  REQUESTED:          0  ISSUED:          0  USEFUL:          0  USELESS:          0
LLC AVERAGE MISS LATENCY: 316.559 cycles
Insertion Distribution: 
	LOAD 186360 0 203465 1455590 
	RFO 50999 0 94033 280991 
	PREF 0 0 0 0 
	WRITEBACK 0 0 0 544310 
	 6 0 162 100 
Total Prefetch Downgrades: 0

DRAM Statistics
 CHANNEL 0
 RQ ROW_BUFFER_HIT:     356560  ROW_BUFFER_MISS:    1666477
 DBUS AVG_CONGESTED_CYCLE:    3.94704
 WQ ROW_BUFFER_HIT:      61343  ROW_BUFFER_MISS:     705887  FULL:     988984


CPU 0 Branch Prediction Accuracy: 91.9788% MPKI: 17.5693 Average ROB Occupancy at Mispredict: 27.5279
Branch type MPKI
BRANCH_DIRECT_JUMP: 0.00093
BRANCH_INDIRECT: 0.00028
BRANCH_CONDITIONAL: 17.5659
BRANCH_DIRECT_CALL: 0.00064
BRANCH_INDIRECT_CALL: 0.00043
BRANCH_RETURN: 0.00108

