
*** ChampSim Multicore Out-of-Order Simulator ***

Warmup Instructions: 10000000
Simulation Instructions: 100000000
Number of CPUs: 1
Off-chip DRAM Size: 4 GiB Channels: 1 Width: 64-bit Data Rate: 3200 MT/s

VirtualMemory physical capacity: 8588881920 num_ppages: 2096895
VirtualMemory page size: 4096 log2_page_size: 12

CPU 0 runs /datasets/cs240c-wi22-a00-public/data/Assignment2/leslie3d_1186B.trace.xz
CPU 0 Bimodal branch predictor
Basic BTB sets: 1024 ways: 8 indirect buffer size: 4096 RAS size: 64
Initialize SRRIP state
Heartbeat CPU 0 instructions: 10000000 cycles: 4308789 heartbeat IPC: 2.32084 cumulative IPC: 2.32084 (Simulation time: 0 hr 0 min 59 sec) 

Warmup complete CPU 0 instructions: 10000002 cycles: 4308790 (Simulation time: 0 hr 0 min 59 sec) 

Heartbeat CPU 0 instructions: 20000000 cycles: 18191028 heartbeat IPC: 0.720345 cumulative IPC: 0.720345 (Simulation time: 0 hr 2 min 45 sec) 
Heartbeat CPU 0 instructions: 30000000 cycles: 32300893 heartbeat IPC: 0.708724 cumulative IPC: 0.714487 (Simulation time: 0 hr 4 min 29 sec) 
Heartbeat CPU 0 instructions: 40000002 cycles: 46192148 heartbeat IPC: 0.719877 cumulative IPC: 0.716275 (Simulation time: 0 hr 6 min 14 sec) 
Heartbeat CPU 0 instructions: 50000001 cycles: 65590830 heartbeat IPC: 0.515499 cumulative IPC: 0.65272 (Simulation time: 0 hr 8 min 13 sec) 
Heartbeat CPU 0 instructions: 60000000 cycles: 101067939 heartbeat IPC: 0.281872 cumulative IPC: 0.516747 (Simulation time: 0 hr 11 min 24 sec) 
Heartbeat CPU 0 instructions: 70000000 cycles: 129573103 heartbeat IPC: 0.350814 cumulative IPC: 0.478987 (Simulation time: 0 hr 14 min 4 sec) 
Heartbeat CPU 0 instructions: 80000003 cycles: 139781764 heartbeat IPC: 0.979561 cumulative IPC: 0.516708 (Simulation time: 0 hr 15 min 36 sec) 
Heartbeat CPU 0 instructions: 90000002 cycles: 149963458 heartbeat IPC: 0.982155 cumulative IPC: 0.549244 (Simulation time: 0 hr 17 min 12 sec) 
Heartbeat CPU 0 instructions: 100000000 cycles: 160126762 heartbeat IPC: 0.983932 cumulative IPC: 0.577597 (Simulation time: 0 hr 18 min 50 sec) 
Heartbeat CPU 0 instructions: 110000000 cycles: 170315230 heartbeat IPC: 0.981502 cumulative IPC: 0.602386 (Simulation time: 0 hr 20 min 17 sec) 
Finished CPU 0 instructions: 100000003 cycles: 166006441 cumulative IPC: 0.602386 (Simulation time: 0 hr 20 min 17 sec) 

ChampSim completed all CPUs

Region of Interest Statistics

CPU 0 cumulative IPC: 0.602386 instructions: 100000003 cycles: 166006441
cpu0_DTLB TOTAL     ACCESS:   27958647  HIT:   27860968  MISS:      97679
cpu0_DTLB LOAD      ACCESS:   23292743  HIT:   23206816  MISS:      85927
cpu0_DTLB RFO       ACCESS:    4665904  HIT:    4654152  MISS:      11752
cpu0_DTLB PREFETCH  ACCESS:          0  HIT:          0  MISS:          0
cpu0_DTLB WRITEBACK ACCESS:          0  HIT:          0  MISS:          0
cpu0_DTLB TRANSLATION ACCESS:          0  HIT:          0  MISS:          0
cpu0_DTLB PREFETCH  REQUESTED:          0  ISSUED:          0  USEFUL:          0  USELESS:          0
cpu0_DTLB AVERAGE MISS LATENCY: 51.9081 cycles
cpu0_ITLB TOTAL     ACCESS:    2914521  HIT:    2914508  MISS:         13
cpu0_ITLB LOAD      ACCESS:    2914521  HIT:    2914508  MISS:         13
cpu0_ITLB RFO       ACCESS:          0  HIT:          0  MISS:          0
cpu0_ITLB PREFETCH  ACCESS:          0  HIT:          0  MISS:          0
cpu0_ITLB WRITEBACK ACCESS:          0  HIT:          0  MISS:          0
cpu0_ITLB TRANSLATION ACCESS:          0  HIT:          0  MISS:          0
cpu0_ITLB PREFETCH  REQUESTED:          0  ISSUED:          0  USEFUL:          0  USELESS:          0
cpu0_ITLB AVERAGE MISS LATENCY: 294.231 cycles
cpu0_L1I TOTAL     ACCESS:    1737935  HIT:    1737555  MISS:        380
cpu0_L1I LOAD      ACCESS:    1737935  HIT:    1737555  MISS:        380
cpu0_L1I RFO       ACCESS:          0  HIT:          0  MISS:          0
cpu0_L1I PREFETCH  ACCESS:          0  HIT:          0  MISS:          0
cpu0_L1I WRITEBACK ACCESS:          0  HIT:          0  MISS:          0
cpu0_L1I TRANSLATION ACCESS:          0  HIT:          0  MISS:          0
cpu0_L1I PREFETCH  REQUESTED:          0  ISSUED:          0  USEFUL:          0  USELESS:          0
cpu0_L1I AVERAGE MISS LATENCY: 307.397 cycles
cpu0_STLB TOTAL     ACCESS:      97692  HIT:      70290  MISS:      27402
cpu0_STLB LOAD      ACCESS:      85940  HIT:      63213  MISS:      22727
cpu0_STLB RFO       ACCESS:      11752  HIT:       7077  MISS:       4675
cpu0_STLB PREFETCH  ACCESS:          0  HIT:          0  MISS:          0
cpu0_STLB WRITEBACK ACCESS:          0  HIT:          0  MISS:          0
cpu0_STLB TRANSLATION ACCESS:          0  HIT:          0  MISS:          0
cpu0_STLB PREFETCH  REQUESTED:          0  ISSUED:          0  USEFUL:          0  USELESS:          0
cpu0_STLB AVERAGE MISS LATENCY: 153.034 cycles
cpu0_L1D TOTAL     ACCESS:   27022540  HIT:   23119680  MISS:    3902860
cpu0_L1D LOAD      ACCESS:   17805326  HIT:   14621475  MISS:    3183851
cpu0_L1D RFO       ACCESS:    9192632  HIT:    8477068  MISS:     715564
cpu0_L1D PREFETCH  ACCESS:          0  HIT:          0  MISS:          0
cpu0_L1D WRITEBACK ACCESS:          0  HIT:          0  MISS:          0
cpu0_L1D TRANSLATION ACCESS:      24582  HIT:      21137  MISS:       3445
cpu0_L1D PREFETCH  REQUESTED:          0  ISSUED:          0  USEFUL:          0  USELESS:          0
cpu0_L1D AVERAGE MISS LATENCY: 365.685 cycles
cpu0_L2C TOTAL     ACCESS:    4956411  HIT:    2399122  MISS:    2557289
cpu0_L2C LOAD      ACCESS:    3184181  HIT:    1036961  MISS:    2147220
cpu0_L2C RFO       ACCESS:     715260  HIT:     307606  MISS:     407654
cpu0_L2C PREFETCH  ACCESS:          0  HIT:          0  MISS:          0
cpu0_L2C WRITEBACK ACCESS:    1053525  HIT:    1051320  MISS:       2205
cpu0_L2C TRANSLATION ACCESS:       3445  HIT:       3235  MISS:        210
cpu0_L2C PREFETCH  REQUESTED:          0  ISSUED:          0  USEFUL:          0  USELESS:          0
cpu0_L2C AVERAGE MISS LATENCY: 541.301 cycles
LLC TOTAL     ACCESS:    3217414  HIT:     803227  MISS:    2414187
LLC LOAD      ACCESS:    2147211  HIT:     516944  MISS:    1630267
LLC RFO       ACCESS:     407644  HIT:     115212  MISS:     292432
LLC PREFETCH  ACCESS:          0  HIT:          0  MISS:          0
LLC WRITEBACK ACCESS:     662349  HIT:     170878  MISS:     491471
LLC TRANSLATION ACCESS:        210  HIT:        193  MISS:         17
LLC PREFETCH  REQUESTED:          0  ISSUED:          0  USEFUL:          0  USELESS:          0
LLC AVERAGE MISS LATENCY: 551.118 cycles
Insertion Distribution: 
	LOAD 173326 0 229343 1393218 
	RFO 1843 0 16722 275752 
	PREF 0 0 0 0 
	WRITEBACK 0 0 0 509873 
	 2 0 31 3 
Total Prefetch Downgrades: 0

DRAM Statistics
 CHANNEL 0
 RQ ROW_BUFFER_HIT:     214522  ROW_BUFFER_MISS:    1708127
 DBUS AVG_CONGESTED_CYCLE:    3.95177
 WQ ROW_BUFFER_HIT:      41687  ROW_BUFFER_MISS:     489715  FULL:      22585


CPU 0 Branch Prediction Accuracy: 96.8384% MPKI: 1.47634 Average ROB Occupancy at Mispredict: 311.42
Branch type MPKI
BRANCH_DIRECT_JUMP: 0.00016
BRANCH_INDIRECT: 0
BRANCH_CONDITIONAL: 1.47504
BRANCH_DIRECT_CALL: 0.00057
BRANCH_INDIRECT_CALL: 0
BRANCH_RETURN: 0.00057

