
*** ChampSim Multicore Out-of-Order Simulator ***

Warmup Instructions: 10000000
Simulation Instructions: 100000000
Number of CPUs: 1
Off-chip DRAM Size: 4 GiB Channels: 1 Width: 64-bit Data Rate: 3200 MT/s

VirtualMemory physical capacity: 8588881920 num_ppages: 2096895
VirtualMemory page size: 4096 log2_page_size: 12

CPU 0 runs /datasets/cs240c-wi22-a00-public/data/Assignment2/calculix_3812B.trace.xz
CPU 0 Bimodal branch predictor
Basic BTB sets: 1024 ways: 8 indirect buffer size: 4096 RAS size: 64
Initialize SRRIP state
Heartbeat CPU 0 instructions: 10000000 cycles: 2819851 heartbeat IPC: 3.54629 cumulative IPC: 3.54629 (Simulation time: 0 hr 0 min 27 sec) 

Warmup complete CPU 0 instructions: 10000004 cycles: 2819852 (Simulation time: 0 hr 0 min 27 sec) 

Heartbeat CPU 0 instructions: 20000004 cycles: 6546598 heartbeat IPC: 2.68331 cumulative IPC: 2.68331 (Simulation time: 0 hr 0 min 53 sec) 
Heartbeat CPU 0 instructions: 30000001 cycles: 10290479 heartbeat IPC: 2.67102 cumulative IPC: 2.67715 (Simulation time: 0 hr 1 min 19 sec) 
Heartbeat CPU 0 instructions: 40000000 cycles: 13979754 heartbeat IPC: 2.71056 cumulative IPC: 2.6882 (Simulation time: 0 hr 1 min 59 sec) 
Heartbeat CPU 0 instructions: 50000001 cycles: 18242308 heartbeat IPC: 2.34601 cumulative IPC: 2.59362 (Simulation time: 0 hr 2 min 32 sec) 
Heartbeat CPU 0 instructions: 60000000 cycles: 22109813 heartbeat IPC: 2.58565 cumulative IPC: 2.59202 (Simulation time: 0 hr 2 min 58 sec) 
Heartbeat CPU 0 instructions: 70000000 cycles: 25950864 heartbeat IPC: 2.60345 cumulative IPC: 2.59392 (Simulation time: 0 hr 3 min 25 sec) 
Heartbeat CPU 0 instructions: 80000001 cycles: 29676614 heartbeat IPC: 2.68402 cumulative IPC: 2.60642 (Simulation time: 0 hr 4 min 3 sec) 
Heartbeat CPU 0 instructions: 90000004 cycles: 33688274 heartbeat IPC: 2.49273 cumulative IPC: 2.59165 (Simulation time: 0 hr 4 min 35 sec) 
Heartbeat CPU 0 instructions: 100000001 cycles: 37234415 heartbeat IPC: 2.81997 cumulative IPC: 2.61517 (Simulation time: 0 hr 4 min 59 sec) 
Heartbeat CPU 0 instructions: 110000002 cycles: 40930767 heartbeat IPC: 2.70537 cumulative IPC: 2.62392 (Simulation time: 0 hr 5 min 25 sec) 
Finished CPU 0 instructions: 100000003 cycles: 38110916 cumulative IPC: 2.62392 (Simulation time: 0 hr 5 min 25 sec) 

ChampSim completed all CPUs

Region of Interest Statistics

CPU 0 cumulative IPC: 2.62392 instructions: 100000003 cycles: 38110916
cpu0_DTLB TOTAL     ACCESS:   14471025  HIT:   14443734  MISS:      27291
cpu0_DTLB LOAD      ACCESS:   12813736  HIT:   12787559  MISS:      26177
cpu0_DTLB RFO       ACCESS:    1657289  HIT:    1656175  MISS:       1114
cpu0_DTLB PREFETCH  ACCESS:          0  HIT:          0  MISS:          0
cpu0_DTLB WRITEBACK ACCESS:          0  HIT:          0  MISS:          0
cpu0_DTLB TRANSLATION ACCESS:          0  HIT:          0  MISS:          0
cpu0_DTLB PREFETCH  REQUESTED:          0  ISSUED:          0  USEFUL:          0  USELESS:          0
cpu0_DTLB AVERAGE MISS LATENCY: 14.9436 cycles
cpu0_ITLB TOTAL     ACCESS:    5708455  HIT:    5708427  MISS:         28
cpu0_ITLB LOAD      ACCESS:    5708455  HIT:    5708427  MISS:         28
cpu0_ITLB RFO       ACCESS:          0  HIT:          0  MISS:          0
cpu0_ITLB PREFETCH  ACCESS:          0  HIT:          0  MISS:          0
cpu0_ITLB WRITEBACK ACCESS:          0  HIT:          0  MISS:          0
cpu0_ITLB TRANSLATION ACCESS:          0  HIT:          0  MISS:          0
cpu0_ITLB PREFETCH  REQUESTED:          0  ISSUED:          0  USEFUL:          0  USELESS:          0
cpu0_ITLB AVERAGE MISS LATENCY: 9 cycles
cpu0_L1I TOTAL     ACCESS:     869565  HIT:     868813  MISS:        752
cpu0_L1I LOAD      ACCESS:     869565  HIT:     868813  MISS:        752
cpu0_L1I RFO       ACCESS:          0  HIT:          0  MISS:          0
cpu0_L1I PREFETCH  ACCESS:          0  HIT:          0  MISS:          0
cpu0_L1I WRITEBACK ACCESS:          0  HIT:          0  MISS:          0
cpu0_L1I TRANSLATION ACCESS:          0  HIT:          0  MISS:          0
cpu0_L1I PREFETCH  REQUESTED:          0  ISSUED:          0  USEFUL:          0  USELESS:          0
cpu0_L1I AVERAGE MISS LATENCY: 65.492 cycles
cpu0_STLB TOTAL     ACCESS:      27319  HIT:      26545  MISS:        774
cpu0_STLB LOAD      ACCESS:      26205  HIT:      25865  MISS:        340
cpu0_STLB RFO       ACCESS:       1114  HIT:        680  MISS:        434
cpu0_STLB PREFETCH  ACCESS:          0  HIT:          0  MISS:          0
cpu0_STLB WRITEBACK ACCESS:          0  HIT:          0  MISS:          0
cpu0_STLB TRANSLATION ACCESS:          0  HIT:          0  MISS:          0
cpu0_STLB PREFETCH  REQUESTED:          0  ISSUED:          0  USEFUL:          0  USELESS:          0
cpu0_STLB AVERAGE MISS LATENCY: 209.494 cycles
cpu0_L1D TOTAL     ACCESS:   16686292  HIT:   15359000  MISS:    1327292
cpu0_L1D LOAD      ACCESS:   11968295  HIT:   10693205  MISS:    1275090
cpu0_L1D RFO       ACCESS:    4717226  HIT:    4665071  MISS:      52155
cpu0_L1D PREFETCH  ACCESS:          0  HIT:          0  MISS:          0
cpu0_L1D WRITEBACK ACCESS:          0  HIT:          0  MISS:          0
cpu0_L1D TRANSLATION ACCESS:        771  HIT:        724  MISS:         47
cpu0_L1D PREFETCH  REQUESTED:          0  ISSUED:          0  USEFUL:          0  USELESS:          0
cpu0_L1D AVERAGE MISS LATENCY: 29.7723 cycles
cpu0_L2C TOTAL     ACCESS:    1837947  HIT:    1545988  MISS:     291959
cpu0_L2C LOAD      ACCESS:    1275831  HIT:    1023138  MISS:     252693
cpu0_L2C RFO       ACCESS:      52155  HIT:      13803  MISS:      38352
cpu0_L2C PREFETCH  ACCESS:          0  HIT:          0  MISS:          0
cpu0_L2C WRITEBACK ACCESS:     509914  HIT:     509016  MISS:        898
cpu0_L2C TRANSLATION ACCESS:         47  HIT:         31  MISS:         16
cpu0_L2C PREFETCH  REQUESTED:          0  ISSUED:          0  USEFUL:          0  USELESS:          0
cpu0_L2C AVERAGE MISS LATENCY: 84.7764 cycles
LLC TOTAL     ACCESS:     430996  HIT:     317956  MISS:     113040
LLC LOAD      ACCESS:     252689  HIT:     184514  MISS:      68175
LLC RFO       ACCESS:      38348  HIT:       8225  MISS:      30123
LLC PREFETCH  ACCESS:          0  HIT:          0  MISS:          0
LLC WRITEBACK ACCESS:     139943  HIT:     125204  MISS:      14739
LLC TRANSLATION ACCESS:         16  HIT:         13  MISS:          3
LLC PREFETCH  REQUESTED:          0  ISSUED:          0  USEFUL:          0  USELESS:          0
LLC AVERAGE MISS LATENCY: 164.56 cycles
Insertion Distribution: 
	LOAD 0 0 30260 45352 
	RFO 0 0 21718 14465 
	PREF 0 0 0 0 
	WRITEBACK 0 0 0 14739 
	 0 0 13 3 
Total Prefetch Downgrades: 0

DRAM Statistics
 CHANNEL 0
 RQ ROW_BUFFER_HIT:      62914  ROW_BUFFER_MISS:      35211
 DBUS AVG_CONGESTED_CYCLE:    3.93626
 WQ ROW_BUFFER_HIT:       4202  ROW_BUFFER_MISS:      19039  FULL:      23517


CPU 0 Branch Prediction Accuracy: 96.6151% MPKI: 1.9742 Average ROB Occupancy at Mispredict: 165.532
Branch type MPKI
BRANCH_DIRECT_JUMP: 0.00017
BRANCH_INDIRECT: 0.00062
BRANCH_CONDITIONAL: 1.97308
BRANCH_DIRECT_CALL: 0.00017
BRANCH_INDIRECT_CALL: 0
BRANCH_RETURN: 0.00016

