
*** ChampSim Multicore Out-of-Order Simulator ***

Warmup Instructions: 10000000
Simulation Instructions: 100000000
Number of CPUs: 1
Off-chip DRAM Size: 4 GiB Channels: 1 Width: 64-bit Data Rate: 3200 MT/s

VirtualMemory physical capacity: 8588881920 num_ppages: 2096895
VirtualMemory page size: 4096 log2_page_size: 12

CPU 0 runs /datasets/cs240c-wi22-a00-public/data/Assignment2/GemsFDTD_109B.trace.xz
CPU 0 Bimodal branch predictor
Basic BTB sets: 1024 ways: 8 indirect buffer size: 4096 RAS size: 64
Initialize SRRIP state
Heartbeat CPU 0 instructions: 10000004 cycles: 4294006 heartbeat IPC: 2.32883 cumulative IPC: 2.32883 (Simulation time: 0 hr 0 min 57 sec) 

Warmup complete CPU 0 instructions: 10000004 cycles: 4294006 (Simulation time: 0 hr 0 min 57 sec) 

Heartbeat CPU 0 instructions: 20000000 cycles: 34917369 heartbeat IPC: 0.326548 cumulative IPC: 0.326548 (Simulation time: 0 hr 4 min 15 sec) 
Heartbeat CPU 0 instructions: 30000004 cycles: 55402603 heartbeat IPC: 0.488157 cumulative IPC: 0.391324 (Simulation time: 0 hr 6 min 10 sec) 
Heartbeat CPU 0 instructions: 40000004 cycles: 61540262 heartbeat IPC: 1.62929 cumulative IPC: 0.524052 (Simulation time: 0 hr 6 min 56 sec) 
Heartbeat CPU 0 instructions: 50000001 cycles: 82409169 heartbeat IPC: 0.479182 cumulative IPC: 0.512064 (Simulation time: 0 hr 8 min 58 sec) 
Heartbeat CPU 0 instructions: 60000002 cycles: 123944513 heartbeat IPC: 0.240759 cumulative IPC: 0.417884 (Simulation time: 0 hr 12 min 52 sec) 
Heartbeat CPU 0 instructions: 70000003 cycles: 163684441 heartbeat IPC: 0.251636 cumulative IPC: 0.376434 (Simulation time: 0 hr 16 min 49 sec) 
Heartbeat CPU 0 instructions: 80000004 cycles: 203478684 heartbeat IPC: 0.251293 cumulative IPC: 0.351433 (Simulation time: 0 hr 21 min 11 sec) 
Heartbeat CPU 0 instructions: 90000000 cycles: 243125080 heartbeat IPC: 0.25223 cumulative IPC: 0.334965 (Simulation time: 0 hr 25 min 11 sec) 
Heartbeat CPU 0 instructions: 100000000 cycles: 282904633 heartbeat IPC: 0.251385 cumulative IPC: 0.323031 (Simulation time: 0 hr 29 min 29 sec) 
Heartbeat CPU 0 instructions: 110000004 cycles: 322671091 heartbeat IPC: 0.251468 cumulative IPC: 0.314093 (Simulation time: 0 hr 33 min 38 sec) 
Finished CPU 0 instructions: 100000000 cycles: 318377085 cumulative IPC: 0.314093 (Simulation time: 0 hr 33 min 38 sec) 

ChampSim completed all CPUs

Region of Interest Statistics

CPU 0 cumulative IPC: 0.314093 instructions: 100000000 cycles: 318377085
cpu0_DTLB TOTAL     ACCESS:   26455413  HIT:   26255992  MISS:     199421
cpu0_DTLB LOAD      ACCESS:   21026211  HIT:   20828791  MISS:     197420
cpu0_DTLB RFO       ACCESS:    5429202  HIT:    5427201  MISS:       2001
cpu0_DTLB PREFETCH  ACCESS:          0  HIT:          0  MISS:          0
cpu0_DTLB WRITEBACK ACCESS:          0  HIT:          0  MISS:          0
cpu0_DTLB TRANSLATION ACCESS:          0  HIT:          0  MISS:          0
cpu0_DTLB PREFETCH  REQUESTED:          0  ISSUED:          0  USEFUL:          0  USELESS:          0
cpu0_DTLB AVERAGE MISS LATENCY: 434.933 cycles
cpu0_ITLB TOTAL     ACCESS:    2054295  HIT:    2054277  MISS:         18
cpu0_ITLB LOAD      ACCESS:    2054295  HIT:    2054277  MISS:         18
cpu0_ITLB RFO       ACCESS:          0  HIT:          0  MISS:          0
cpu0_ITLB PREFETCH  ACCESS:          0  HIT:          0  MISS:          0
cpu0_ITLB WRITEBACK ACCESS:          0  HIT:          0  MISS:          0
cpu0_ITLB TRANSLATION ACCESS:          0  HIT:          0  MISS:          0
cpu0_ITLB PREFETCH  REQUESTED:          0  ISSUED:          0  USEFUL:          0  USELESS:          0
cpu0_ITLB AVERAGE MISS LATENCY: 240.222 cycles
cpu0_L1I TOTAL     ACCESS:    1722896  HIT:    1722466  MISS:        430
cpu0_L1I LOAD      ACCESS:    1722896  HIT:    1722466  MISS:        430
cpu0_L1I RFO       ACCESS:          0  HIT:          0  MISS:          0
cpu0_L1I PREFETCH  ACCESS:          0  HIT:          0  MISS:          0
cpu0_L1I WRITEBACK ACCESS:          0  HIT:          0  MISS:          0
cpu0_L1I TRANSLATION ACCESS:          0  HIT:          0  MISS:          0
cpu0_L1I PREFETCH  REQUESTED:          0  ISSUED:          0  USEFUL:          0  USELESS:          0
cpu0_L1I AVERAGE MISS LATENCY: 336.128 cycles
cpu0_STLB TOTAL     ACCESS:     199439  HIT:      33978  MISS:     165461
cpu0_STLB LOAD      ACCESS:     197438  HIT:      32671  MISS:     164767
cpu0_STLB RFO       ACCESS:       2001  HIT:       1307  MISS:        694
cpu0_STLB PREFETCH  ACCESS:          0  HIT:          0  MISS:          0
cpu0_STLB WRITEBACK ACCESS:          0  HIT:          0  MISS:          0
cpu0_STLB TRANSLATION ACCESS:          0  HIT:          0  MISS:          0
cpu0_STLB PREFETCH  REQUESTED:          0  ISSUED:          0  USEFUL:          0  USELESS:          0
cpu0_STLB AVERAGE MISS LATENCY: 513.264 cycles
cpu0_L1D TOTAL     ACCESS:   22795125  HIT:   19564986  MISS:    3230139
cpu0_L1D LOAD      ACCESS:   13697347  HIT:   10597505  MISS:    3099842
cpu0_L1D RFO       ACCESS:    9008274  HIT:    8880661  MISS:     127613
cpu0_L1D PREFETCH  ACCESS:          0  HIT:          0  MISS:          0
cpu0_L1D WRITEBACK ACCESS:          0  HIT:          0  MISS:          0
cpu0_L1D TRANSLATION ACCESS:      89504  HIT:      86820  MISS:       2684
cpu0_L1D PREFETCH  REQUESTED:          0  ISSUED:          0  USEFUL:          0  USELESS:          0
cpu0_L1D AVERAGE MISS LATENCY: 730.272 cycles
cpu0_L2C TOTAL     ACCESS:    4595401  HIT:    1423651  MISS:    3171750
cpu0_L2C LOAD      ACCESS:    3100272  HIT:      41219  MISS:    3059053
cpu0_L2C RFO       ACCESS:     127613  HIT:      15210  MISS:     112403
cpu0_L2C PREFETCH  ACCESS:          0  HIT:          0  MISS:          0
cpu0_L2C WRITEBACK ACCESS:    1364832  HIT:    1364734  MISS:         98
cpu0_L2C TRANSLATION ACCESS:       2684  HIT:       2488  MISS:        196
cpu0_L2C PREFETCH  REQUESTED:          0  ISSUED:          0  USEFUL:          0  USELESS:          0
cpu0_L2C AVERAGE MISS LATENCY: 732.543 cycles
LLC TOTAL     ACCESS:    4522893  HIT:     948780  MISS:    3574113
LLC LOAD      ACCESS:    3059051  HIT:     629756  MISS:    2429295
LLC RFO       ACCESS:     112403  HIT:     101160  MISS:      11243
LLC PREFETCH  ACCESS:          0  HIT:          0  MISS:          0
LLC WRITEBACK ACCESS:    1351243  HIT:     217754  MISS:    1133489
LLC TRANSLATION ACCESS:        196  HIT:        110  MISS:         86
LLC PREFETCH  REQUESTED:          0  ISSUED:          0  USEFUL:          0  USELESS:          0
LLC AVERAGE MISS LATENCY: 631.434 cycles
Insertion Distribution: 
	LOAD 560700 0 321109 1774997 
	RFO 0 0 8139 3106 
	PREF 0 0 0 0 
	WRITEBACK 0 0 0 1244018 
	 15 0 60 30 
Total Prefetch Downgrades: 0

DRAM Statistics
 CHANNEL 0
 RQ ROW_BUFFER_HIT:      43113  ROW_BUFFER_MISS:    2397473
 DBUS AVG_CONGESTED_CYCLE:    3.99638
 WQ ROW_BUFFER_HIT:      25093  ROW_BUFFER_MISS:    1228295  FULL:      83967


CPU 0 Branch Prediction Accuracy: 98.929% MPKI: 0.55515 Average ROB Occupancy at Mispredict: 264.802
Branch type MPKI
BRANCH_DIRECT_JUMP: 0.00045
BRANCH_INDIRECT: 1e-05
BRANCH_CONDITIONAL: 0.5534
BRANCH_DIRECT_CALL: 0.00065
BRANCH_INDIRECT_CALL: 0
BRANCH_RETURN: 0.00064

