
*** ChampSim Multicore Out-of-Order Simulator ***

Warmup Instructions: 10000000
Simulation Instructions: 100000000
Number of CPUs: 1
Off-chip DRAM Size: 4 GiB Channels: 1 Width: 64-bit Data Rate: 3200 MT/s

VirtualMemory physical capacity: 8588881920 num_ppages: 2096895
VirtualMemory page size: 4096 log2_page_size: 12

CPU 0 runs /datasets/cs240c-wi22-a00-public/data/Assignment2/mcf_250B.trace.xz
CPU 0 Bimodal branch predictor
Basic BTB sets: 1024 ways: 8 indirect buffer size: 4096 RAS size: 64
Initialize SRRIP state
Heartbeat CPU 0 instructions: 10000004 cycles: 3834267 heartbeat IPC: 2.60806 cumulative IPC: 2.60806 (Simulation time: 0 hr 0 min 44 sec) 

Warmup complete CPU 0 instructions: 10000004 cycles: 3834267 (Simulation time: 0 hr 0 min 44 sec) 

Heartbeat CPU 0 instructions: 20000000 cycles: 146019035 heartbeat IPC: 0.070331 cumulative IPC: 0.070331 (Simulation time: 0 hr 4 min 27 sec) 
Heartbeat CPU 0 instructions: 30000000 cycles: 283564045 heartbeat IPC: 0.0727035 cumulative IPC: 0.0714976 (Simulation time: 0 hr 7 min 56 sec) 
Heartbeat CPU 0 instructions: 40000000 cycles: 428821514 heartbeat IPC: 0.0688433 cumulative IPC: 0.0705903 (Simulation time: 0 hr 11 min 25 sec) 
Heartbeat CPU 0 instructions: 50000000 cycles: 569354628 heartbeat IPC: 0.0711576 cumulative IPC: 0.0707313 (Simulation time: 0 hr 14 min 54 sec) 
Heartbeat CPU 0 instructions: 60000000 cycles: 709394265 heartbeat IPC: 0.0714084 cumulative IPC: 0.0708657 (Simulation time: 0 hr 18 min 25 sec) 
Heartbeat CPU 0 instructions: 70000000 cycles: 842398146 heartbeat IPC: 0.0751858 cumulative IPC: 0.0715509 (Simulation time: 0 hr 22 min 1 sec) 
Heartbeat CPU 0 instructions: 80000000 cycles: 986203834 heartbeat IPC: 0.0695383 cumulative IPC: 0.0712563 (Simulation time: 0 hr 25 min 48 sec) 
Heartbeat CPU 0 instructions: 90000000 cycles: 1108211231 heartbeat IPC: 0.0819622 cumulative IPC: 0.072439 (Simulation time: 0 hr 28 min 52 sec) 
Heartbeat CPU 0 instructions: 100000000 cycles: 1244331378 heartbeat IPC: 0.0734645 cumulative IPC: 0.0725516 (Simulation time: 0 hr 32 min 7 sec) 
Heartbeat CPU 0 instructions: 110000000 cycles: 1386900953 heartbeat IPC: 0.0701412 cumulative IPC: 0.0723031 (Simulation time: 0 hr 35 min 27 sec) 
Finished CPU 0 instructions: 100000000 cycles: 1383066697 cumulative IPC: 0.0723031 (Simulation time: 0 hr 35 min 27 sec) 

ChampSim completed all CPUs

Region of Interest Statistics

CPU 0 cumulative IPC: 0.0723031 instructions: 100000000 cycles: 1383066697
cpu0_DTLB TOTAL     ACCESS:   20765906  HIT:    2975644  MISS:   17790262
cpu0_DTLB LOAD      ACCESS:   20269856  HIT:    2535481  MISS:   17734375
cpu0_DTLB RFO       ACCESS:     496050  HIT:     440163  MISS:      55887
cpu0_DTLB PREFETCH  ACCESS:          0  HIT:          0  MISS:          0
cpu0_DTLB WRITEBACK ACCESS:          0  HIT:          0  MISS:          0
cpu0_DTLB TRANSLATION ACCESS:          0  HIT:          0  MISS:          0
cpu0_DTLB PREFETCH  REQUESTED:          0  ISSUED:          0  USEFUL:          0  USELESS:          0
cpu0_DTLB AVERAGE MISS LATENCY: 10.4659 cycles
cpu0_ITLB TOTAL     ACCESS:   11316036  HIT:   11316036  MISS:          0
cpu0_ITLB LOAD      ACCESS:   11316036  HIT:   11316036  MISS:          0
cpu0_ITLB RFO       ACCESS:          0  HIT:          0  MISS:          0
cpu0_ITLB PREFETCH  ACCESS:          0  HIT:          0  MISS:          0
cpu0_ITLB WRITEBACK ACCESS:          0  HIT:          0  MISS:          0
cpu0_ITLB TRANSLATION ACCESS:          0  HIT:          0  MISS:          0
cpu0_ITLB PREFETCH  REQUESTED:          0  ISSUED:          0  USEFUL:          0  USELESS:          0
cpu0_ITLB AVERAGE MISS LATENCY: -nan cycles
cpu0_L1I TOTAL     ACCESS:          4  HIT:          4  MISS:          0
cpu0_L1I LOAD      ACCESS:          4  HIT:          4  MISS:          0
cpu0_L1I RFO       ACCESS:          0  HIT:          0  MISS:          0
cpu0_L1I PREFETCH  ACCESS:          0  HIT:          0  MISS:          0
cpu0_L1I WRITEBACK ACCESS:          0  HIT:          0  MISS:          0
cpu0_L1I TRANSLATION ACCESS:          0  HIT:          0  MISS:          0
cpu0_L1I PREFETCH  REQUESTED:          0  ISSUED:          0  USEFUL:          0  USELESS:          0
cpu0_L1I AVERAGE MISS LATENCY: -nan cycles
cpu0_STLB TOTAL     ACCESS:   17790262  HIT:   17413104  MISS:     377158
cpu0_STLB LOAD      ACCESS:   17734375  HIT:   17359354  MISS:     375021
cpu0_STLB RFO       ACCESS:      55887  HIT:      53750  MISS:       2137
cpu0_STLB PREFETCH  ACCESS:          0  HIT:          0  MISS:          0
cpu0_STLB WRITEBACK ACCESS:          0  HIT:          0  MISS:          0
cpu0_STLB TRANSLATION ACCESS:          0  HIT:          0  MISS:          0
cpu0_STLB PREFETCH  REQUESTED:          0  ISSUED:          0  USEFUL:          0  USELESS:          0
cpu0_STLB AVERAGE MISS LATENCY: 69.1173 cycles
cpu0_L1D TOTAL     ACCESS:   21383443  HIT:    3439523  MISS:   17943920
cpu0_L1D LOAD      ACCESS:   20342639  HIT:    2558652  MISS:   17783987
cpu0_L1D RFO       ACCESS:     664702  HIT:     633044  MISS:      31658
cpu0_L1D PREFETCH  ACCESS:          0  HIT:          0  MISS:          0
cpu0_L1D WRITEBACK ACCESS:          0  HIT:          0  MISS:          0
cpu0_L1D TRANSLATION ACCESS:     376102  HIT:     247827  MISS:     128275
cpu0_L1D PREFETCH  REQUESTED:          0  ISSUED:          0  USEFUL:          0  USELESS:          0
cpu0_L1D AVERAGE MISS LATENCY: 227.88 cycles
cpu0_L2C TOTAL     ACCESS:   18302828  HIT:    5792616  MISS:   12510212
cpu0_L2C LOAD      ACCESS:   17783959  HIT:    5386650  MISS:   12397309
cpu0_L2C RFO       ACCESS:      31657  HIT:       9148  MISS:      22509
cpu0_L2C PREFETCH  ACCESS:          0  HIT:          0  MISS:          0
cpu0_L2C WRITEBACK ACCESS:     358937  HIT:     358935  MISS:          2
cpu0_L2C TRANSLATION ACCESS:     128275  HIT:      37883  MISS:      90392
cpu0_L2C PREFETCH  REQUESTED:          0  ISSUED:          0  USEFUL:          0  USELESS:          0
cpu0_L2C AVERAGE MISS LATENCY: 311.068 cycles
LLC TOTAL     ACCESS:   12800445  HIT:    5932858  MISS:    6867587
LLC LOAD      ACCESS:   12397309  HIT:    5653874  MISS:    6743435
LLC RFO       ACCESS:      22509  HIT:      13103  MISS:       9406
LLC PREFETCH  ACCESS:          0  HIT:          0  MISS:          0
LLC WRITEBACK ACCESS:     290235  HIT:     179679  MISS:     110556
LLC TRANSLATION ACCESS:      90392  HIT:      86202  MISS:       4190
LLC PREFETCH  REQUESTED:          0  ISSUED:          0  USEFUL:          0  USELESS:          0
LLC AVERAGE MISS LATENCY: 528.396 cycles
Insertion Distribution: 
	LOAD 150115 0 122585 7175824 
	RFO 5186 0 2861 5130 
	PREF 0 0 0 0 
	WRITEBACK 0 0 0 157006 
	 31 0 132 4534 
Total Prefetch Downgrades: 0

DRAM Statistics
 CHANNEL 0
 RQ ROW_BUFFER_HIT:       2667  ROW_BUFFER_MISS:    6754277
 DBUS AVG_CONGESTED_CYCLE:    3.96476
 WQ ROW_BUFFER_HIT:      10782  ROW_BUFFER_MISS:     148342  FULL:          0


CPU 0 Branch Prediction Accuracy: 91.6559% MPKI: 25.5287 Average ROB Occupancy at Mispredict: 24.4795
Branch type MPKI
BRANCH_DIRECT_JUMP: 2e-05
BRANCH_INDIRECT: 0
BRANCH_CONDITIONAL: 25.5287
BRANCH_DIRECT_CALL: 0
BRANCH_INDIRECT_CALL: 0
BRANCH_RETURN: 0

