
*** ChampSim Multicore Out-of-Order Simulator ***

Warmup Instructions: 10000000
Simulation Instructions: 100000000
Number of CPUs: 1
Off-chip DRAM Size: 4 GiB Channels: 1 Width: 64-bit Data Rate: 3200 MT/s

VirtualMemory physical capacity: 8588881920 num_ppages: 2096895
VirtualMemory page size: 4096 log2_page_size: 12

CPU 0 runs /datasets/cs240c-wi22-a00-public/data/Assignment2/sphinx3_1339B.trace.xz
CPU 0 Bimodal branch predictor
Basic BTB sets: 1024 ways: 8 indirect buffer size: 4096 RAS size: 64
Initialize SRRIP state
Heartbeat CPU 0 instructions: 10000000 cycles: 2584401 heartbeat IPC: 3.86937 cumulative IPC: 3.86937 (Simulation time: 0 hr 0 min 29 sec) 

Warmup complete CPU 0 instructions: 10000004 cycles: 2584402 (Simulation time: 0 hr 0 min 29 sec) 

Heartbeat CPU 0 instructions: 20000003 cycles: 10250284 heartbeat IPC: 1.30448 cumulative IPC: 1.30448 (Simulation time: 0 hr 1 min 15 sec) 
Heartbeat CPU 0 instructions: 30000001 cycles: 17444851 heartbeat IPC: 1.38994 cumulative IPC: 1.34585 (Simulation time: 0 hr 2 min 0 sec) 
Heartbeat CPU 0 instructions: 40000002 cycles: 25404781 heartbeat IPC: 1.25629 cumulative IPC: 1.31461 (Simulation time: 0 hr 2 min 47 sec) 
Heartbeat CPU 0 instructions: 50000001 cycles: 33180414 heartbeat IPC: 1.28607 cumulative IPC: 1.30736 (Simulation time: 0 hr 3 min 36 sec) 
Heartbeat CPU 0 instructions: 60000003 cycles: 40964085 heartbeat IPC: 1.28474 cumulative IPC: 1.30277 (Simulation time: 0 hr 4 min 23 sec) 
Heartbeat CPU 0 instructions: 70000002 cycles: 48860447 heartbeat IPC: 1.26641 cumulative IPC: 1.29657 (Simulation time: 0 hr 5 min 10 sec) 
Heartbeat CPU 0 instructions: 80000001 cycles: 56667010 heartbeat IPC: 1.28097 cumulative IPC: 1.29432 (Simulation time: 0 hr 5 min 58 sec) 
Heartbeat CPU 0 instructions: 90000004 cycles: 64376705 heartbeat IPC: 1.29707 cumulative IPC: 1.29466 (Simulation time: 0 hr 6 min 45 sec) 
Heartbeat CPU 0 instructions: 100000002 cycles: 72355536 heartbeat IPC: 1.25332 cumulative IPC: 1.28993 (Simulation time: 0 hr 7 min 31 sec) 
Heartbeat CPU 0 instructions: 110000000 cycles: 81020183 heartbeat IPC: 1.15411 cumulative IPC: 1.27493 (Simulation time: 0 hr 8 min 19 sec) 
Finished CPU 0 instructions: 100000001 cycles: 78435782 cumulative IPC: 1.27493 (Simulation time: 0 hr 8 min 19 sec) 

ChampSim completed all CPUs

Region of Interest Statistics

CPU 0 cumulative IPC: 1.27493 instructions: 100000001 cycles: 78435782
cpu0_DTLB TOTAL     ACCESS:   16212465  HIT:   16103716  MISS:     108749
cpu0_DTLB LOAD      ACCESS:   15046939  HIT:   14944114  MISS:     102825
cpu0_DTLB RFO       ACCESS:    1165526  HIT:    1159602  MISS:       5924
cpu0_DTLB PREFETCH  ACCESS:          0  HIT:          0  MISS:          0
cpu0_DTLB WRITEBACK ACCESS:          0  HIT:          0  MISS:          0
cpu0_DTLB TRANSLATION ACCESS:          0  HIT:          0  MISS:          0
cpu0_DTLB PREFETCH  REQUESTED:          0  ISSUED:          0  USEFUL:          0  USELESS:          0
cpu0_DTLB AVERAGE MISS LATENCY: 13.2337 cycles
cpu0_ITLB TOTAL     ACCESS:    9583142  HIT:    9583100  MISS:         42
cpu0_ITLB LOAD      ACCESS:    9583142  HIT:    9583100  MISS:         42
cpu0_ITLB RFO       ACCESS:          0  HIT:          0  MISS:          0
cpu0_ITLB PREFETCH  ACCESS:          0  HIT:          0  MISS:          0
cpu0_ITLB WRITEBACK ACCESS:          0  HIT:          0  MISS:          0
cpu0_ITLB TRANSLATION ACCESS:          0  HIT:          0  MISS:          0
cpu0_ITLB PREFETCH  REQUESTED:          0  ISSUED:          0  USEFUL:          0  USELESS:          0
cpu0_ITLB AVERAGE MISS LATENCY: 122.881 cycles
cpu0_L1I TOTAL     ACCESS:     299541  HIT:     297970  MISS:       1571
cpu0_L1I LOAD      ACCESS:     299541  HIT:     297970  MISS:       1571
cpu0_L1I RFO       ACCESS:          0  HIT:          0  MISS:          0
cpu0_L1I PREFETCH  ACCESS:          0  HIT:          0  MISS:          0
cpu0_L1I WRITEBACK ACCESS:          0  HIT:          0  MISS:          0
cpu0_L1I TRANSLATION ACCESS:          0  HIT:          0  MISS:          0
cpu0_L1I PREFETCH  REQUESTED:          0  ISSUED:          0  USEFUL:          0  USELESS:          0
cpu0_L1I AVERAGE MISS LATENCY: 167.933 cycles
cpu0_STLB TOTAL     ACCESS:     108791  HIT:      69674  MISS:      39117
cpu0_STLB LOAD      ACCESS:     102867  HIT:      64829  MISS:      38038
cpu0_STLB RFO       ACCESS:       5924  HIT:       4845  MISS:       1079
cpu0_STLB PREFETCH  ACCESS:          0  HIT:          0  MISS:          0
cpu0_STLB WRITEBACK ACCESS:          0  HIT:          0  MISS:          0
cpu0_STLB TRANSLATION ACCESS:          0  HIT:          0  MISS:          0
cpu0_STLB PREFETCH  REQUESTED:          0  ISSUED:          0  USEFUL:          0  USELESS:          0
cpu0_STLB AVERAGE MISS LATENCY: 11.7477 cycles
cpu0_L1D TOTAL     ACCESS:   12038258  HIT:   10539088  MISS:    1499170
cpu0_L1D LOAD      ACCESS:   10241881  HIT:    8863817  MISS:    1378064
cpu0_L1D RFO       ACCESS:    1759409  HIT:    1638805  MISS:     120604
cpu0_L1D PREFETCH  ACCESS:          0  HIT:          0  MISS:          0
cpu0_L1D WRITEBACK ACCESS:          0  HIT:          0  MISS:          0
cpu0_L1D TRANSLATION ACCESS:      36968  HIT:      36466  MISS:        502
cpu0_L1D PREFETCH  REQUESTED:          0  ISSUED:          0  USEFUL:          0  USELESS:          0
cpu0_L1D AVERAGE MISS LATENCY: 91.1793 cycles
cpu0_L2C TOTAL     ACCESS:    1642858  HIT:     358324  MISS:    1284534
cpu0_L2C LOAD      ACCESS:    1379622  HIT:     204278  MISS:    1175344
cpu0_L2C RFO       ACCESS:     120602  HIT:      11970  MISS:     108632
cpu0_L2C PREFETCH  ACCESS:          0  HIT:          0  MISS:          0
cpu0_L2C WRITEBACK ACCESS:     142132  HIT:     141862  MISS:        270
cpu0_L2C TRANSLATION ACCESS:        502  HIT:        214  MISS:        288
cpu0_L2C PREFETCH  REQUESTED:          0  ISSUED:          0  USEFUL:          0  USELESS:          0
cpu0_L2C AVERAGE MISS LATENCY: 93.7296 cycles
LLC TOTAL     ACCESS:    1413643  HIT:     910290  MISS:     503353
LLC LOAD      ACCESS:    1175339  HIT:     697314  MISS:     478025
LLC RFO       ACCESS:     108632  HIT:      96386  MISS:      12246
LLC PREFETCH  ACCESS:          0  HIT:          0  MISS:          0
LLC WRITEBACK ACCESS:     129384  HIT:     116304  MISS:      13080
LLC TRANSLATION ACCESS:        288  HIT:        286  MISS:          2
LLC PREFETCH  REQUESTED:          0  ISSUED:          0  USEFUL:          0  USELESS:          0
LLC AVERAGE MISS LATENCY: 185.61 cycles
Insertion Distribution: 
	LOAD 0 0 78148 487459 
	RFO 0 0 5784 11451 
	PREF 0 0 0 0 
	WRITEBACK 0 0 0 13565 
	 0 0 18 4 
Total Prefetch Downgrades: 0

DRAM Statistics
 CHANNEL 0
 RQ ROW_BUFFER_HIT:      54166  ROW_BUFFER_MISS:     436035
 DBUS AVG_CONGESTED_CYCLE:    3.78799
 WQ ROW_BUFFER_HIT:       5266  ROW_BUFFER_MISS:      13334  FULL:          0


CPU 0 Branch Prediction Accuracy: 92.5867% MPKI: 6.65069 Average ROB Occupancy at Mispredict: 176.89
Branch type MPKI
BRANCH_DIRECT_JUMP: 0.00112
BRANCH_INDIRECT: 0
BRANCH_CONDITIONAL: 6.64811
BRANCH_DIRECT_CALL: 0.00071
BRANCH_INDIRECT_CALL: 3e-05
BRANCH_RETURN: 0.00072

