
*** ChampSim Multicore Out-of-Order Simulator ***

Warmup Instructions: 10000000
Simulation Instructions: 100000000
Number of CPUs: 1
Off-chip DRAM Size: 4 GiB Channels: 1 Width: 64-bit Data Rate: 3200 MT/s

VirtualMemory physical capacity: 8588881920 num_ppages: 2096895
VirtualMemory page size: 4096 log2_page_size: 12

CPU 0 runs /datasets/cs240c-wi22-a00-public/data/Assignment2/lbm_94B.trace.xz
CPU 0 Bimodal branch predictor
Basic BTB sets: 1024 ways: 8 indirect buffer size: 4096 RAS size: 64
Initialize SRRIP state
Heartbeat CPU 0 instructions: 10000001 cycles: 2544773 heartbeat IPC: 3.92962 cumulative IPC: 3.92962 (Simulation time: 0 hr 0 min 31 sec) 

Warmup complete CPU 0 instructions: 10000001 cycles: 2544773 (Simulation time: 0 hr 0 min 31 sec) 

Heartbeat CPU 0 instructions: 20000000 cycles: 40652519 heartbeat IPC: 0.262414 cumulative IPC: 0.262414 (Simulation time: 0 hr 3 min 31 sec) 
Heartbeat CPU 0 instructions: 30000004 cycles: 78376036 heartbeat IPC: 0.265087 cumulative IPC: 0.263743 (Simulation time: 0 hr 6 min 27 sec) 
Heartbeat CPU 0 instructions: 40000002 cycles: 114423406 heartbeat IPC: 0.277413 cumulative IPC: 0.268148 (Simulation time: 0 hr 9 min 15 sec) 
Heartbeat CPU 0 instructions: 50000001 cycles: 149942610 heartbeat IPC: 0.281538 cumulative IPC: 0.271374 (Simulation time: 0 hr 11 min 56 sec) 
Heartbeat CPU 0 instructions: 60000003 cycles: 185497805 heartbeat IPC: 0.281253 cumulative IPC: 0.273294 (Simulation time: 0 hr 14 min 35 sec) 
Heartbeat CPU 0 instructions: 70000001 cycles: 221434678 heartbeat IPC: 0.278266 cumulative IPC: 0.27411 (Simulation time: 0 hr 17 min 13 sec) 
Heartbeat CPU 0 instructions: 80000003 cycles: 257280006 heartbeat IPC: 0.278976 cumulative IPC: 0.274795 (Simulation time: 0 hr 19 min 51 sec) 
Heartbeat CPU 0 instructions: 90000003 cycles: 293036490 heartbeat IPC: 0.27967 cumulative IPC: 0.275395 (Simulation time: 0 hr 22 min 36 sec) 
Heartbeat CPU 0 instructions: 100000001 cycles: 328679097 heartbeat IPC: 0.280563 cumulative IPC: 0.27596 (Simulation time: 0 hr 25 min 19 sec) 
Heartbeat CPU 0 instructions: 110000003 cycles: 363912840 heartbeat IPC: 0.283819 cumulative IPC: 0.276726 (Simulation time: 0 hr 28 min 0 sec) 
Finished CPU 0 instructions: 100000002 cycles: 361368067 cumulative IPC: 0.276726 (Simulation time: 0 hr 28 min 0 sec) 

ChampSim completed all CPUs

Region of Interest Statistics

CPU 0 cumulative IPC: 0.276726 instructions: 100000002 cycles: 361368067
cpu0_DTLB TOTAL     ACCESS:   13210835  HIT:   13163085  MISS:      47750
cpu0_DTLB LOAD      ACCESS:    6752913  HIT:    6740967  MISS:      11946
cpu0_DTLB RFO       ACCESS:    6457922  HIT:    6422118  MISS:      35804
cpu0_DTLB PREFETCH  ACCESS:          0  HIT:          0  MISS:          0
cpu0_DTLB WRITEBACK ACCESS:          0  HIT:          0  MISS:          0
cpu0_DTLB TRANSLATION ACCESS:          0  HIT:          0  MISS:          0
cpu0_DTLB PREFETCH  REQUESTED:          0  ISSUED:          0  USEFUL:          0  USELESS:          0
cpu0_DTLB AVERAGE MISS LATENCY: 200.716 cycles
cpu0_ITLB TOTAL     ACCESS:     123482  HIT:     123482  MISS:          0
cpu0_ITLB LOAD      ACCESS:     123482  HIT:     123482  MISS:          0
cpu0_ITLB RFO       ACCESS:          0  HIT:          0  MISS:          0
cpu0_ITLB PREFETCH  ACCESS:          0  HIT:          0  MISS:          0
cpu0_ITLB WRITEBACK ACCESS:          0  HIT:          0  MISS:          0
cpu0_ITLB TRANSLATION ACCESS:          0  HIT:          0  MISS:          0
cpu0_ITLB PREFETCH  REQUESTED:          0  ISSUED:          0  USEFUL:          0  USELESS:          0
cpu0_ITLB AVERAGE MISS LATENCY: -nan cycles
cpu0_STLB TOTAL     ACCESS:      47750  HIT:          0  MISS:      47750
cpu0_STLB LOAD      ACCESS:      11946  HIT:          0  MISS:      11946
cpu0_STLB RFO       ACCESS:      35804  HIT:          0  MISS:      35804
cpu0_STLB PREFETCH  ACCESS:          0  HIT:          0  MISS:          0
cpu0_STLB WRITEBACK ACCESS:          0  HIT:          0  MISS:          0
cpu0_STLB TRANSLATION ACCESS:          0  HIT:          0  MISS:          0
cpu0_STLB PREFETCH  REQUESTED:          0  ISSUED:          0  USEFUL:          0  USELESS:          0
cpu0_STLB AVERAGE MISS LATENCY: 191.716 cycles
cpu0_L1D TOTAL     ACCESS:   14662177  HIT:    9623648  MISS:    5038529
cpu0_L1D LOAD      ACCESS:    4303063  HIT:    3539589  MISS:     763474
cpu0_L1D RFO       ACCESS:   10311364  HIT:    6036354  MISS:    4275010
cpu0_L1D PREFETCH  ACCESS:          0  HIT:          0  MISS:          0
cpu0_L1D WRITEBACK ACCESS:          0  HIT:          0  MISS:          0
cpu0_L1D TRANSLATION ACCESS:      47750  HIT:      47705  MISS:         45
cpu0_L1D PREFETCH  REQUESTED:          0  ISSUED:          0  USEFUL:          0  USELESS:          0
cpu0_L1D AVERAGE MISS LATENCY: 501.977 cycles
cpu0_L2C TOTAL     ACCESS:    9313538  HIT:    6258417  MISS:    3055121
cpu0_L2C LOAD      ACCESS:     763474  HIT:          2  MISS:     763472
cpu0_L2C RFO       ACCESS:    4275010  HIT:    1983504  MISS:    2291506
cpu0_L2C PREFETCH  ACCESS:          0  HIT:          0  MISS:          0
cpu0_L2C WRITEBACK ACCESS:    4275009  HIT:    4274911  MISS:         98
cpu0_L2C TRANSLATION ACCESS:         45  HIT:          0  MISS:         45
cpu0_L2C PREFETCH  REQUESTED:          0  ISSUED:          0  USEFUL:          0  USELESS:          0
cpu0_L2C AVERAGE MISS LATENCY: 808.239 cycles
LLC TOTAL     ACCESS:    5346804  HIT:     630218  MISS:    4716586
LLC LOAD      ACCESS:     763472  HIT:         54  MISS:     763418
LLC RFO       ACCESS:    2291506  HIT:     200618  MISS:    2090888
LLC PREFETCH  ACCESS:          0  HIT:          0  MISS:          0
LLC WRITEBACK ACCESS:    2291781  HIT:     429519  MISS:    1862262
LLC TRANSLATION ACCESS:         45  HIT:         27  MISS:         18
LLC PREFETCH  REQUESTED:          0  ISSUED:          0  USEFUL:          0  USELESS:          0
LLC AVERAGE MISS LATENCY: 509.926 cycles
Insertion Distribution: 
	LOAD 0 0 0 0 0 0 0 0 0 0 0 0 0 0 9516 839700 
	RFO 108885 0 0 0 0 0 0 0 0 0 0 0 0 0 215852 1985032 
	PREF 0 0 0 0 0 0 0 0 0 0 0 0 0 0 0 0 
	WRITEBACK 0 0 0 0 0 0 0 0 0 0 0 0 0 0 0 2014946 
	 0 0 0 0 0 0 0 0 0 0 0 0 0 0 26 5 
Total Prefetch Downgrades: 0

DRAM Statistics
 CHANNEL 0
 RQ ROW_BUFFER_HIT:      47144  ROW_BUFFER_MISS:    2807005
 DBUS AVG_CONGESTED_CYCLE:    3.99741
 WQ ROW_BUFFER_HIT:      32079  ROW_BUFFER_MISS:    2058281  FULL:       3648


CPU 0 Branch Prediction Accuracy: 99.132% MPKI: 0.10209 Average ROB Occupancy at Mispredict: 173.616
Branch type MPKI
BRANCH_DIRECT_JUMP: 0
BRANCH_INDIRECT: 0
BRANCH_CONDITIONAL: 0.10209
BRANCH_DIRECT_CALL: 0
BRANCH_INDIRECT_CALL: 0
BRANCH_RETURN: 0

