
*** ChampSim Multicore Out-of-Order Simulator ***

Warmup Instructions: 10000000
Simulation Instructions: 100000000
Number of CPUs: 1
Off-chip DRAM Size: 4 GiB Channels: 1 Width: 64-bit Data Rate: 3200 MT/s

VirtualMemory physical capacity: 8588881920 num_ppages: 2096895
VirtualMemory page size: 4096 log2_page_size: 12

CPU 0 runs /datasets/cs240c-wi22-a00-public/data/Assignment2/omnetpp_17B.trace.xz
CPU 0 Bimodal branch predictor
Basic BTB sets: 1024 ways: 8 indirect buffer size: 4096 RAS size: 64
Initialize SRRIP state
Heartbeat CPU 0 instructions: 10000002 cycles: 2500125 heartbeat IPC: 3.9998 cumulative IPC: 3.9998 (Simulation time: 0 hr 0 min 23 sec) 

Warmup complete CPU 0 instructions: 10000002 cycles: 2500125 (Simulation time: 0 hr 0 min 23 sec) 

Heartbeat CPU 0 instructions: 20000003 cycles: 8171514 heartbeat IPC: 1.76324 cumulative IPC: 1.76324 (Simulation time: 0 hr 0 min 51 sec) 
Heartbeat CPU 0 instructions: 30000000 cycles: 14830685 heartbeat IPC: 1.50169 cumulative IPC: 1.62199 (Simulation time: 0 hr 1 min 32 sec) 
Heartbeat CPU 0 instructions: 40000001 cycles: 21674407 heartbeat IPC: 1.46119 cumulative IPC: 1.5646 (Simulation time: 0 hr 2 min 15 sec) 
Heartbeat CPU 0 instructions: 50000001 cycles: 27568057 heartbeat IPC: 1.69674 cumulative IPC: 1.59566 (Simulation time: 0 hr 2 min 47 sec) 
Heartbeat CPU 0 instructions: 60000001 cycles: 33571686 heartbeat IPC: 1.66566 cumulative IPC: 1.60919 (Simulation time: 0 hr 3 min 20 sec) 
Heartbeat CPU 0 instructions: 70000000 cycles: 40351177 heartbeat IPC: 1.47504 cumulative IPC: 1.58516 (Simulation time: 0 hr 4 min 0 sec) 
Heartbeat CPU 0 instructions: 80000002 cycles: 47162541 heartbeat IPC: 1.46813 cumulative IPC: 1.56731 (Simulation time: 0 hr 4 min 40 sec) 
Heartbeat CPU 0 instructions: 90000003 cycles: 53945393 heartbeat IPC: 1.47431 cumulative IPC: 1.55505 (Simulation time: 0 hr 5 min 21 sec) 
Heartbeat CPU 0 instructions: 100000002 cycles: 59293418 heartbeat IPC: 1.86985 cumulative IPC: 1.58469 (Simulation time: 0 hr 5 min 47 sec) 
Heartbeat CPU 0 instructions: 110000001 cycles: 65974779 heartbeat IPC: 1.4967 cumulative IPC: 1.57543 (Simulation time: 0 hr 6 min 28 sec) 
Finished CPU 0 instructions: 100000004 cycles: 63474661 cumulative IPC: 1.57543 (Simulation time: 0 hr 6 min 28 sec) 

ChampSim completed all CPUs

Region of Interest Statistics

CPU 0 cumulative IPC: 1.57543 instructions: 100000004 cycles: 63474661
cpu0_DTLB TOTAL     ACCESS:   10161785  HIT:    9096979  MISS:    1064806
cpu0_DTLB LOAD      ACCESS:    8224643  HIT:    7161717  MISS:    1062926
cpu0_DTLB RFO       ACCESS:    1937142  HIT:    1935262  MISS:       1880
cpu0_DTLB PREFETCH  ACCESS:          0  HIT:          0  MISS:          0
cpu0_DTLB WRITEBACK ACCESS:          0  HIT:          0  MISS:          0
cpu0_DTLB TRANSLATION ACCESS:          0  HIT:          0  MISS:          0
cpu0_DTLB PREFETCH  REQUESTED:          0  ISSUED:          0  USEFUL:          0  USELESS:          0
cpu0_DTLB AVERAGE MISS LATENCY: 18.573 cycles
cpu0_ITLB TOTAL     ACCESS:    8332921  HIT:    8330864  MISS:       2057
cpu0_ITLB LOAD      ACCESS:    8332921  HIT:    8330864  MISS:       2057
cpu0_ITLB RFO       ACCESS:          0  HIT:          0  MISS:          0
cpu0_ITLB PREFETCH  ACCESS:          0  HIT:          0  MISS:          0
cpu0_ITLB WRITEBACK ACCESS:          0  HIT:          0  MISS:          0
cpu0_ITLB TRANSLATION ACCESS:          0  HIT:          0  MISS:          0
cpu0_ITLB PREFETCH  REQUESTED:          0  ISSUED:          0  USEFUL:          0  USELESS:          0
cpu0_ITLB AVERAGE MISS LATENCY: 15.6315 cycles
cpu0_L1I TOTAL     ACCESS:    1054775  HIT:    1050436  MISS:       4339
cpu0_L1I LOAD      ACCESS:    1054775  HIT:    1050436  MISS:       4339
cpu0_L1I RFO       ACCESS:          0  HIT:          0  MISS:          0
cpu0_L1I PREFETCH  ACCESS:          0  HIT:          0  MISS:          0
cpu0_L1I WRITEBACK ACCESS:          0  HIT:          0  MISS:          0
cpu0_L1I TRANSLATION ACCESS:          0  HIT:          0  MISS:          0
cpu0_L1I PREFETCH  REQUESTED:          0  ISSUED:          0  USEFUL:          0  USELESS:          0
cpu0_L1I AVERAGE MISS LATENCY: 57.7324 cycles
cpu0_STLB TOTAL     ACCESS:    1066863  HIT:      12748  MISS:    1054115
cpu0_STLB LOAD      ACCESS:    1064983  HIT:      11384  MISS:    1053599
cpu0_STLB RFO       ACCESS:       1880  HIT:       1364  MISS:        516
cpu0_STLB PREFETCH  ACCESS:          0  HIT:          0  MISS:          0
cpu0_STLB WRITEBACK ACCESS:          0  HIT:          0  MISS:          0
cpu0_STLB TRANSLATION ACCESS:          0  HIT:          0  MISS:          0
cpu0_STLB PREFETCH  REQUESTED:          0  ISSUED:          0  USEFUL:          0  USELESS:          0
cpu0_STLB AVERAGE MISS LATENCY: 9.24946 cycles
cpu0_L1D TOTAL     ACCESS:   10155432  HIT:    8400990  MISS:    1754442
cpu0_L1D LOAD      ACCESS:    6357829  HIT:    4617541  MISS:    1740288
cpu0_L1D RFO       ACCESS:    3337605  HIT:    3324546  MISS:      13059
cpu0_L1D PREFETCH  ACCESS:          0  HIT:          0  MISS:          0
cpu0_L1D WRITEBACK ACCESS:          0  HIT:          0  MISS:          0
cpu0_L1D TRANSLATION ACCESS:     459998  HIT:     458903  MISS:       1095
cpu0_L1D PREFETCH  REQUESTED:          0  ISSUED:          0  USEFUL:          0  USELESS:          0
cpu0_L1D AVERAGE MISS LATENCY: 88.9912 cycles
cpu0_L2C TOTAL     ACCESS:    1775591  HIT:      23305  MISS:    1752286
cpu0_L2C LOAD      ACCESS:    1744627  HIT:       5922  MISS:    1738705
cpu0_L2C RFO       ACCESS:      13059  HIT:        137  MISS:      12922
cpu0_L2C PREFETCH  ACCESS:          0  HIT:          0  MISS:          0
cpu0_L2C WRITEBACK ACCESS:      16810  HIT:      16810  MISS:          0
cpu0_L2C TRANSLATION ACCESS:       1095  HIT:        436  MISS:        659
cpu0_L2C PREFETCH  REQUESTED:          0  ISSUED:          0  USEFUL:          0  USELESS:          0
cpu0_L2C AVERAGE MISS LATENCY: 77.5489 cycles
LLC TOTAL     ACCESS:    1768992  HIT:    1491745  MISS:     277247
LLC LOAD      ACCESS:    1738705  HIT:    1478003  MISS:     260702
LLC RFO       ACCESS:      12922  HIT:       2651  MISS:      10271
LLC PREFETCH  ACCESS:          0  HIT:          0  MISS:          0
LLC WRITEBACK ACCESS:      16706  HIT:      10623  MISS:       6083
LLC TRANSLATION ACCESS:        659  HIT:        468  MISS:        191
LLC PREFETCH  REQUESTED:          0  ISSUED:          0  USEFUL:          0  USELESS:          0
LLC AVERAGE MISS LATENCY: 357.357 cycles
Insertion Distribution: 
	LOAD 2445 0 60478 274031 
	RFO 0 0 1532 9820 
	PREF 0 0 0 0 
	WRITEBACK 0 0 0 6187 
	 0 0 68 167 
Total Prefetch Downgrades: 0

DRAM Statistics
 CHANNEL 0
 RQ ROW_BUFFER_HIT:      10633  ROW_BUFFER_MISS:     260444
 DBUS AVG_CONGESTED_CYCLE:    3.96719
 WQ ROW_BUFFER_HIT:       3573  ROW_BUFFER_MISS:       7944  FULL:          0


CPU 0 Branch Prediction Accuracy: 97.6159% MPKI: 7.87238 Average ROB Occupancy at Mispredict: 63.2276
Branch type MPKI
BRANCH_DIRECT_JUMP: 0.00032
BRANCH_INDIRECT: 0.08474
BRANCH_CONDITIONAL: 7.75802
BRANCH_DIRECT_CALL: 0.00068
BRANCH_INDIRECT_CALL: 0.00292
BRANCH_RETURN: 0.0257

