
*** ChampSim Multicore Out-of-Order Simulator ***

Warmup Instructions: 10000000
Simulation Instructions: 100000000
Number of CPUs: 1
Off-chip DRAM Size: 4 GiB Channels: 1 Width: 64-bit Data Rate: 3200 MT/s

VirtualMemory physical capacity: 8588881920 num_ppages: 2096895
VirtualMemory page size: 4096 log2_page_size: 12

CPU 0 runs /datasets/cs240c-wi22-a00-public/data/Assignment2/bzip2_281B.trace.xz
CPU 0 Bimodal branch predictor
Basic BTB sets: 1024 ways: 8 indirect buffer size: 4096 RAS size: 64
Initialize SRRIP state
Heartbeat CPU 0 instructions: 10000004 cycles: 3227400 heartbeat IPC: 3.09847 cumulative IPC: 3.09847 (Simulation time: 0 hr 0 min 45 sec) 

Warmup complete CPU 0 instructions: 10000004 cycles: 3227400 (Simulation time: 0 hr 0 min 45 sec) 

Heartbeat CPU 0 instructions: 20000000 cycles: 13722963 heartbeat IPC: 0.952783 cumulative IPC: 0.952783 (Simulation time: 0 hr 1 min 37 sec) 
Heartbeat CPU 0 instructions: 30000001 cycles: 25010692 heartbeat IPC: 0.885918 cumulative IPC: 0.918135 (Simulation time: 0 hr 2 min 49 sec) 
Heartbeat CPU 0 instructions: 40000002 cycles: 29676738 heartbeat IPC: 2.14314 cumulative IPC: 1.13424 (Simulation time: 0 hr 3 min 26 sec) 
Heartbeat CPU 0 instructions: 50000002 cycles: 34675410 heartbeat IPC: 2.00053 cumulative IPC: 1.27194 (Simulation time: 0 hr 4 min 3 sec) 
Heartbeat CPU 0 instructions: 60000000 cycles: 39912895 heartbeat IPC: 1.90931 cumulative IPC: 1.36294 (Simulation time: 0 hr 4 min 46 sec) 
Heartbeat CPU 0 instructions: 70000004 cycles: 47439619 heartbeat IPC: 1.3286 cumulative IPC: 1.35709 (Simulation time: 0 hr 5 min 52 sec) 
Heartbeat CPU 0 instructions: 80000003 cycles: 55157917 heartbeat IPC: 1.29562 cumulative IPC: 1.34795 (Simulation time: 0 hr 6 min 48 sec) 
Heartbeat CPU 0 instructions: 90000003 cycles: 61682443 heartbeat IPC: 1.53268 cumulative IPC: 1.36857 (Simulation time: 0 hr 7 min 29 sec) 
Heartbeat CPU 0 instructions: 100000001 cycles: 68361274 heartbeat IPC: 1.49727 cumulative IPC: 1.38177 (Simulation time: 0 hr 8 min 14 sec) 
Heartbeat CPU 0 instructions: 110000000 cycles: 75094329 heartbeat IPC: 1.48521 cumulative IPC: 1.39146 (Simulation time: 0 hr 8 min 59 sec) 
Finished CPU 0 instructions: 100000000 cycles: 71866931 cumulative IPC: 1.39146 (Simulation time: 0 hr 8 min 59 sec) 

ChampSim completed all CPUs

Region of Interest Statistics

CPU 0 cumulative IPC: 1.39146 instructions: 100000000 cycles: 71866931
cpu0_DTLB TOTAL     ACCESS:   19628661  HIT:   18870110  MISS:     758551
cpu0_DTLB LOAD      ACCESS:   13776708  HIT:   13131069  MISS:     645639
cpu0_DTLB RFO       ACCESS:    5851953  HIT:    5739041  MISS:     112912
cpu0_DTLB PREFETCH  ACCESS:          0  HIT:          0  MISS:          0
cpu0_DTLB WRITEBACK ACCESS:          0  HIT:          0  MISS:          0
cpu0_DTLB TRANSLATION ACCESS:          0  HIT:          0  MISS:          0
cpu0_DTLB PREFETCH  REQUESTED:          0  ISSUED:          0  USEFUL:          0  USELESS:          0
cpu0_DTLB AVERAGE MISS LATENCY: 9.33303 cycles
cpu0_ITLB TOTAL     ACCESS:    6407703  HIT:    6407689  MISS:         14
cpu0_ITLB LOAD      ACCESS:    6407703  HIT:    6407689  MISS:         14
cpu0_ITLB RFO       ACCESS:          0  HIT:          0  MISS:          0
cpu0_ITLB PREFETCH  ACCESS:          0  HIT:          0  MISS:          0
cpu0_ITLB WRITEBACK ACCESS:          0  HIT:          0  MISS:          0
cpu0_ITLB TRANSLATION ACCESS:          0  HIT:          0  MISS:          0
cpu0_ITLB PREFETCH  REQUESTED:          0  ISSUED:          0  USEFUL:          0  USELESS:          0
cpu0_ITLB AVERAGE MISS LATENCY: 222.429 cycles
cpu0_L1I TOTAL     ACCESS:    2685812  HIT:    2685458  MISS:        354
cpu0_L1I LOAD      ACCESS:    2685812  HIT:    2685458  MISS:        354
cpu0_L1I RFO       ACCESS:          0  HIT:          0  MISS:          0
cpu0_L1I PREFETCH  ACCESS:          0  HIT:          0  MISS:          0
cpu0_L1I WRITEBACK ACCESS:          0  HIT:          0  MISS:          0
cpu0_L1I TRANSLATION ACCESS:          0  HIT:          0  MISS:          0
cpu0_L1I PREFETCH  REQUESTED:          0  ISSUED:          0  USEFUL:          0  USELESS:          0
cpu0_L1I AVERAGE MISS LATENCY: 173.15 cycles
cpu0_STLB TOTAL     ACCESS:     758565  HIT:     757483  MISS:       1082
cpu0_STLB LOAD      ACCESS:     645653  HIT:     644746  MISS:        907
cpu0_STLB RFO       ACCESS:     112912  HIT:     112737  MISS:        175
cpu0_STLB PREFETCH  ACCESS:          0  HIT:          0  MISS:          0
cpu0_STLB WRITEBACK ACCESS:          0  HIT:          0  MISS:          0
cpu0_STLB TRANSLATION ACCESS:          0  HIT:          0  MISS:          0
cpu0_STLB PREFETCH  REQUESTED:          0  ISSUED:          0  USEFUL:          0  USELESS:          0
cpu0_STLB AVERAGE MISS LATENCY: 203.632 cycles
cpu0_L1D TOTAL     ACCESS:   23445747  HIT:   21846881  MISS:    1598866
cpu0_L1D LOAD      ACCESS:   13700686  HIT:   12307709  MISS:    1392977
cpu0_L1D RFO       ACCESS:    9743993  HIT:    9538609  MISS:     205384
cpu0_L1D PREFETCH  ACCESS:          0  HIT:          0  MISS:          0
cpu0_L1D WRITEBACK ACCESS:          0  HIT:          0  MISS:          0
cpu0_L1D TRANSLATION ACCESS:       1068  HIT:        563  MISS:        505
cpu0_L1D PREFETCH  REQUESTED:          0  ISSUED:          0  USEFUL:          0  USELESS:          0
cpu0_L1D AVERAGE MISS LATENCY: 81.9006 cycles
cpu0_L2C TOTAL     ACCESS:    1813532  HIT:     911348  MISS:     902184
cpu0_L2C LOAD      ACCESS:    1393327  HIT:     648940  MISS:     744387
cpu0_L2C RFO       ACCESS:     205366  HIT:      47853  MISS:     157513
cpu0_L2C PREFETCH  ACCESS:          0  HIT:          0  MISS:          0
cpu0_L2C WRITEBACK ACCESS:     214334  HIT:     214080  MISS:        254
cpu0_L2C TRANSLATION ACCESS:        505  HIT:        475  MISS:         30
cpu0_L2C PREFETCH  REQUESTED:          0  ISSUED:          0  USEFUL:          0  USELESS:          0
cpu0_L2C AVERAGE MISS LATENCY: 125.578 cycles
LLC TOTAL     ACCESS:    1060503  HIT:     794096  MISS:     266407
LLC LOAD      ACCESS:     744386  HIT:     598186  MISS:     146200
LLC RFO       ACCESS:     157503  HIT:      82975  MISS:      74528
LLC PREFETCH  ACCESS:          0  HIT:          0  MISS:          0
LLC WRITEBACK ACCESS:     158584  HIT:     112910  MISS:      45674
LLC TRANSLATION ACCESS:         30  HIT:         25  MISS:          5
LLC PREFETCH  REQUESTED:          0  ISSUED:          0  USEFUL:          0  USELESS:          0
LLC AVERAGE MISS LATENCY: 354.151 cycles
Insertion Distribution: 
	LOAD 21637 0 0 0 0 0 0 0 0 0 0 0 0 0 32662 113122 
	RFO 10938 0 0 0 0 0 0 0 0 0 0 0 0 0 35545 45775 
	PREF 0 0 0 0 0 0 0 0 0 0 0 0 0 0 0 0 
	WRITEBACK 0 0 0 0 0 0 0 0 0 0 0 0 0 0 0 47548 
	 0 0 0 0 0 0 0 0 0 0 0 0 0 0 16 0 
Total Prefetch Downgrades: 0

DRAM Statistics
 CHANNEL 0
 RQ ROW_BUFFER_HIT:      73749  ROW_BUFFER_MISS:     146532
 DBUS AVG_CONGESTED_CYCLE:    3.98112
 WQ ROW_BUFFER_HIT:       5929  ROW_BUFFER_MISS:      77511  FULL:       2672


CPU 0 Branch Prediction Accuracy: 91.2056% MPKI: 12.1715 Average ROB Occupancy at Mispredict: 73.2718
Branch type MPKI
BRANCH_DIRECT_JUMP: 0.00059
BRANCH_INDIRECT: 0
BRANCH_CONDITIONAL: 12.1706
BRANCH_DIRECT_CALL: 0.00014
BRANCH_INDIRECT_CALL: 0
BRANCH_RETURN: 0.00019

