
*** ChampSim Multicore Out-of-Order Simulator ***

Warmup Instructions: 10000000
Simulation Instructions: 100000000
Number of CPUs: 1
Off-chip DRAM Size: 4 GiB Channels: 1 Width: 64-bit Data Rate: 3200 MT/s

VirtualMemory physical capacity: 8588881920 num_ppages: 2096895
VirtualMemory page size: 4096 log2_page_size: 12

CPU 0 runs /datasets/cs240c-wi22-a00-public/data/Assignment2/bzip2_281B.trace.xz
CPU 0 Bimodal branch predictor
Basic BTB sets: 1024 ways: 8 indirect buffer size: 4096 RAS size: 64
Initialize SRRIP state
Heartbeat CPU 0 instructions: 10000004 cycles: 3227478 heartbeat IPC: 3.0984 cumulative IPC: 3.0984 (Simulation time: 0 hr 0 min 40 sec) 

Warmup complete CPU 0 instructions: 10000004 cycles: 3227478 (Simulation time: 0 hr 0 min 40 sec) 

Heartbeat CPU 0 instructions: 20000000 cycles: 13848947 heartbeat IPC: 0.941489 cumulative IPC: 0.941489 (Simulation time: 0 hr 1 min 26 sec) 
Heartbeat CPU 0 instructions: 30000001 cycles: 25476233 heartbeat IPC: 0.860046 cumulative IPC: 0.898927 (Simulation time: 0 hr 2 min 28 sec) 
Heartbeat CPU 0 instructions: 40000002 cycles: 30028443 heartbeat IPC: 2.19674 cumulative IPC: 1.11936 (Simulation time: 0 hr 2 min 57 sec) 
Heartbeat CPU 0 instructions: 50000002 cycles: 34971865 heartbeat IPC: 2.02289 cumulative IPC: 1.26007 (Simulation time: 0 hr 3 min 27 sec) 
Heartbeat CPU 0 instructions: 60000000 cycles: 40068423 heartbeat IPC: 1.96211 cumulative IPC: 1.35719 (Simulation time: 0 hr 4 min 2 sec) 
Heartbeat CPU 0 instructions: 70000004 cycles: 47596542 heartbeat IPC: 1.32835 cumulative IPC: 1.35229 (Simulation time: 0 hr 4 min 57 sec) 
Heartbeat CPU 0 instructions: 80000003 cycles: 55222210 heartbeat IPC: 1.31136 cumulative IPC: 1.34629 (Simulation time: 0 hr 5 min 44 sec) 
Heartbeat CPU 0 instructions: 90000003 cycles: 61625947 heartbeat IPC: 1.56159 cumulative IPC: 1.3699 (Simulation time: 0 hr 6 min 18 sec) 
Heartbeat CPU 0 instructions: 100000001 cycles: 68307326 heartbeat IPC: 1.4967 cumulative IPC: 1.38292 (Simulation time: 0 hr 6 min 55 sec) 
Heartbeat CPU 0 instructions: 110000000 cycles: 75027794 heartbeat IPC: 1.48799 cumulative IPC: 1.39275 (Simulation time: 0 hr 7 min 31 sec) 
Finished CPU 0 instructions: 100000000 cycles: 71800318 cumulative IPC: 1.39275 (Simulation time: 0 hr 7 min 31 sec) 

ChampSim completed all CPUs

Region of Interest Statistics

CPU 0 cumulative IPC: 1.39275 instructions: 100000000 cycles: 71800318
cpu0_DTLB TOTAL     ACCESS:   19657166  HIT:   18898567  MISS:     758599
cpu0_DTLB LOAD      ACCESS:   13796483  HIT:   13150801  MISS:     645682
cpu0_DTLB RFO       ACCESS:    5860683  HIT:    5747766  MISS:     112917
cpu0_DTLB PREFETCH  ACCESS:          0  HIT:          0  MISS:          0
cpu0_DTLB WRITEBACK ACCESS:          0  HIT:          0  MISS:          0
cpu0_DTLB TRANSLATION ACCESS:          0  HIT:          0  MISS:          0
cpu0_DTLB PREFETCH  REQUESTED:          0  ISSUED:          0  USEFUL:          0  USELESS:          0
cpu0_DTLB AVERAGE MISS LATENCY: 9.33152 cycles
cpu0_ITLB TOTAL     ACCESS:    6449436  HIT:    6449422  MISS:         14
cpu0_ITLB LOAD      ACCESS:    6449436  HIT:    6449422  MISS:         14
cpu0_ITLB RFO       ACCESS:          0  HIT:          0  MISS:          0
cpu0_ITLB PREFETCH  ACCESS:          0  HIT:          0  MISS:          0
cpu0_ITLB WRITEBACK ACCESS:          0  HIT:          0  MISS:          0
cpu0_ITLB TRANSLATION ACCESS:          0  HIT:          0  MISS:          0
cpu0_ITLB PREFETCH  REQUESTED:          0  ISSUED:          0  USEFUL:          0  USELESS:          0
cpu0_ITLB AVERAGE MISS LATENCY: 234 cycles
cpu0_L1I TOTAL     ACCESS:    2685584  HIT:    2685230  MISS:        354
cpu0_L1I LOAD      ACCESS:    2685584  HIT:    2685230  MISS:        354
cpu0_L1I RFO       ACCESS:          0  HIT:          0  MISS:          0
cpu0_L1I PREFETCH  ACCESS:          0  HIT:          0  MISS:          0
cpu0_L1I WRITEBACK ACCESS:          0  HIT:          0  MISS:          0
cpu0_L1I TRANSLATION ACCESS:          0  HIT:          0  MISS:          0
cpu0_L1I PREFETCH  REQUESTED:          0  ISSUED:          0  USEFUL:          0  USELESS:          0
cpu0_L1I AVERAGE MISS LATENCY: 182.605 cycles
cpu0_STLB TOTAL     ACCESS:     758613  HIT:     757531  MISS:       1082
cpu0_STLB LOAD      ACCESS:     645696  HIT:     644789  MISS:        907
cpu0_STLB RFO       ACCESS:     112917  HIT:     112742  MISS:        175
cpu0_STLB PREFETCH  ACCESS:          0  HIT:          0  MISS:          0
cpu0_STLB WRITEBACK ACCESS:          0  HIT:          0  MISS:          0
cpu0_STLB TRANSLATION ACCESS:          0  HIT:          0  MISS:          0
cpu0_STLB PREFETCH  REQUESTED:          0  ISSUED:          0  USEFUL:          0  USELESS:          0
cpu0_STLB AVERAGE MISS LATENCY: 203.914 cycles
cpu0_L1D TOTAL     ACCESS:   23614579  HIT:   22015502  MISS:    1599077
cpu0_L1D LOAD      ACCESS:   13846842  HIT:   12453857  MISS:    1392985
cpu0_L1D RFO       ACCESS:    9766668  HIT:    9561081  MISS:     205587
cpu0_L1D PREFETCH  ACCESS:          0  HIT:          0  MISS:          0
cpu0_L1D WRITEBACK ACCESS:          0  HIT:          0  MISS:          0
cpu0_L1D TRANSLATION ACCESS:       1069  HIT:        564  MISS:        505
cpu0_L1D PREFETCH  REQUESTED:          0  ISSUED:          0  USEFUL:          0  USELESS:          0
cpu0_L1D AVERAGE MISS LATENCY: 87.1287 cycles
cpu0_L2C TOTAL     ACCESS:    1813763  HIT:     911815  MISS:     901948
cpu0_L2C LOAD      ACCESS:    1393335  HIT:     649134  MISS:     744201
cpu0_L2C RFO       ACCESS:     205581  HIT:      48060  MISS:     157521
cpu0_L2C PREFETCH  ACCESS:          0  HIT:          0  MISS:          0
cpu0_L2C WRITEBACK ACCESS:     214342  HIT:     214146  MISS:        196
cpu0_L2C TRANSLATION ACCESS:        505  HIT:        475  MISS:         30
cpu0_L2C PREFETCH  REQUESTED:          0  ISSUED:          0  USEFUL:          0  USELESS:          0
cpu0_L2C AVERAGE MISS LATENCY: 134.902 cycles
LLC TOTAL     ACCESS:    1060210  HIT:     826347  MISS:     233863
LLC LOAD      ACCESS:     744200  HIT:     628579  MISS:     115621
LLC RFO       ACCESS:     157507  HIT:      80644  MISS:      76863
LLC PREFETCH  ACCESS:          0  HIT:          0  MISS:          0
LLC WRITEBACK ACCESS:     158473  HIT:     117101  MISS:      41372
LLC TRANSLATION ACCESS:         30  HIT:         23  MISS:          7
LLC PREFETCH  REQUESTED:          0  ISSUED:          0  USEFUL:          0  USELESS:          0
LLC AVERAGE MISS LATENCY: 439.295 cycles
Insertion Distribution: 
	LOAD 22574 0 42454 71659 
	RFO 2711 0 45847 45912 
	PREF 0 0 0 0 
	WRITEBACK 0 0 0 44491 
	 0 0 17 0 
Total Prefetch Downgrades: 0

DRAM Statistics
 CHANNEL 0
 RQ ROW_BUFFER_HIT:      59046  ROW_BUFFER_MISS:     132964
 DBUS AVG_CONGESTED_CYCLE:      3.988
 WQ ROW_BUFFER_HIT:       3679  ROW_BUFFER_MISS:      84471  FULL:       2951


CPU 0 Branch Prediction Accuracy: 91.2056% MPKI: 12.1715 Average ROB Occupancy at Mispredict: 67.2718
Branch type MPKI
BRANCH_DIRECT_JUMP: 0.00059
BRANCH_INDIRECT: 0
BRANCH_CONDITIONAL: 12.1706
BRANCH_DIRECT_CALL: 0.00014
BRANCH_INDIRECT_CALL: 0
BRANCH_RETURN: 0.00019

