
*** ChampSim Multicore Out-of-Order Simulator ***

Warmup Instructions: 10000000
Simulation Instructions: 100000000
Number of CPUs: 1
Off-chip DRAM Size: 4 GiB Channels: 1 Width: 64-bit Data Rate: 3200 MT/s

VirtualMemory physical capacity: 8588881920 num_ppages: 2096895
VirtualMemory page size: 4096 log2_page_size: 12

CPU 0 runs /datasets/cs240c-wi22-a00-public/data/Assignment2/leslie3d_94B.trace.xz
CPU 0 Bimodal branch predictor
Basic BTB sets: 1024 ways: 8 indirect buffer size: 4096 RAS size: 64
Initialize SRRIP state
Heartbeat CPU 0 instructions: 10000002 cycles: 4308660 heartbeat IPC: 2.32091 cumulative IPC: 2.32091 (Simulation time: 0 hr 1 min 14 sec) 

Warmup complete CPU 0 instructions: 10000002 cycles: 4308660 (Simulation time: 0 hr 1 min 14 sec) 

Heartbeat CPU 0 instructions: 20000000 cycles: 35787137 heartbeat IPC: 0.317677 cumulative IPC: 0.317677 (Simulation time: 0 hr 4 min 30 sec) 
Heartbeat CPU 0 instructions: 30000002 cycles: 86935774 heartbeat IPC: 0.195509 cumulative IPC: 0.242051 (Simulation time: 0 hr 9 min 33 sec) 
Heartbeat CPU 0 instructions: 40000001 cycles: 99957338 heartbeat IPC: 0.767957 cumulative IPC: 0.313648 (Simulation time: 0 hr 11 min 28 sec) 
Heartbeat CPU 0 instructions: 50000002 cycles: 111987946 heartbeat IPC: 0.831213 cumulative IPC: 0.371473 (Simulation time: 0 hr 13 min 18 sec) 
Heartbeat CPU 0 instructions: 60000003 cycles: 122764605 heartbeat IPC: 0.927931 cumulative IPC: 0.422098 (Simulation time: 0 hr 15 min 4 sec) 
Heartbeat CPU 0 instructions: 70000001 cycles: 133103420 heartbeat IPC: 0.967229 cumulative IPC: 0.465857 (Simulation time: 0 hr 16 min 51 sec) 
Heartbeat CPU 0 instructions: 80000000 cycles: 146998150 heartbeat IPC: 0.719697 cumulative IPC: 0.490576 (Simulation time: 0 hr 18 min 57 sec) 
Heartbeat CPU 0 instructions: 90000004 cycles: 180605875 heartbeat IPC: 0.297551 cumulative IPC: 0.453779 (Simulation time: 0 hr 22 min 44 sec) 
Heartbeat CPU 0 instructions: 100000001 cycles: 237499075 heartbeat IPC: 0.175768 cumulative IPC: 0.385951 (Simulation time: 0 hr 29 min 1 sec) 
Heartbeat CPU 0 instructions: 110000004 cycles: 254192818 heartbeat IPC: 0.599027 cumulative IPC: 0.400185 (Simulation time: 0 hr 30 min 54 sec) 
Finished CPU 0 instructions: 100000002 cycles: 249884158 cumulative IPC: 0.400185 (Simulation time: 0 hr 30 min 54 sec) 

ChampSim completed all CPUs

Region of Interest Statistics

CPU 0 cumulative IPC: 0.400185 instructions: 100000002 cycles: 249884158
cpu0_DTLB TOTAL     ACCESS:   26770839  HIT:   26658189  MISS:     112650
cpu0_DTLB LOAD      ACCESS:   21509573  HIT:   21413822  MISS:      95751
cpu0_DTLB RFO       ACCESS:    5261266  HIT:    5244367  MISS:      16899
cpu0_DTLB PREFETCH  ACCESS:          0  HIT:          0  MISS:          0
cpu0_DTLB WRITEBACK ACCESS:          0  HIT:          0  MISS:          0
cpu0_DTLB TRANSLATION ACCESS:          0  HIT:          0  MISS:          0
cpu0_DTLB PREFETCH  REQUESTED:          0  ISSUED:          0  USEFUL:          0  USELESS:          0
cpu0_DTLB AVERAGE MISS LATENCY: 116.913 cycles
cpu0_ITLB TOTAL     ACCESS:    3104379  HIT:    3104322  MISS:         57
cpu0_ITLB LOAD      ACCESS:    3104379  HIT:    3104322  MISS:         57
cpu0_ITLB RFO       ACCESS:          0  HIT:          0  MISS:          0
cpu0_ITLB PREFETCH  ACCESS:          0  HIT:          0  MISS:          0
cpu0_ITLB WRITEBACK ACCESS:          0  HIT:          0  MISS:          0
cpu0_ITLB TRANSLATION ACCESS:          0  HIT:          0  MISS:          0
cpu0_ITLB PREFETCH  REQUESTED:          0  ISSUED:          0  USEFUL:          0  USELESS:          0
cpu0_ITLB AVERAGE MISS LATENCY: 221.842 cycles
cpu0_L1I TOTAL     ACCESS:    1632984  HIT:    1631912  MISS:       1072
cpu0_L1I LOAD      ACCESS:    1632984  HIT:    1631912  MISS:       1072
cpu0_L1I RFO       ACCESS:          0  HIT:          0  MISS:          0
cpu0_L1I PREFETCH  ACCESS:          0  HIT:          0  MISS:          0
cpu0_L1I WRITEBACK ACCESS:          0  HIT:          0  MISS:          0
cpu0_L1I TRANSLATION ACCESS:          0  HIT:          0  MISS:          0
cpu0_L1I PREFETCH  REQUESTED:          0  ISSUED:          0  USEFUL:          0  USELESS:          0
cpu0_L1I AVERAGE MISS LATENCY: 295.169 cycles
cpu0_STLB TOTAL     ACCESS:     112707  HIT:      63011  MISS:      49696
cpu0_STLB LOAD      ACCESS:      95808  HIT:      56447  MISS:      39361
cpu0_STLB RFO       ACCESS:      16899  HIT:       6564  MISS:      10335
cpu0_STLB PREFETCH  ACCESS:          0  HIT:          0  MISS:          0
cpu0_STLB WRITEBACK ACCESS:          0  HIT:          0  MISS:          0
cpu0_STLB TRANSLATION ACCESS:          0  HIT:          0  MISS:          0
cpu0_STLB PREFETCH  REQUESTED:          0  ISSUED:          0  USEFUL:          0  USELESS:          0
cpu0_STLB AVERAGE MISS LATENCY: 244.778 cycles
cpu0_L1D TOTAL     ACCESS:   22175333  HIT:   18140328  MISS:    4035005
cpu0_L1D LOAD      ACCESS:   13790793  HIT:   10702747  MISS:    3088046
cpu0_L1D RFO       ACCESS:    8342082  HIT:    7400040  MISS:     942042
cpu0_L1D PREFETCH  ACCESS:          0  HIT:          0  MISS:          0
cpu0_L1D WRITEBACK ACCESS:          0  HIT:          0  MISS:          0
cpu0_L1D TRANSLATION ACCESS:      42458  HIT:      37541  MISS:       4917
cpu0_L1D PREFETCH  REQUESTED:          0  ISSUED:          0  USEFUL:          0  USELESS:          0
cpu0_L1D AVERAGE MISS LATENCY: 678.766 cycles
cpu0_L2C TOTAL     ACCESS:    5247238  HIT:    2250180  MISS:    2997058
cpu0_L2C LOAD      ACCESS:    3089111  HIT:     790503  MISS:    2298608
cpu0_L2C RFO       ACCESS:     941945  HIT:     246069  MISS:     695876
cpu0_L2C PREFETCH  ACCESS:          0  HIT:          0  MISS:          0
cpu0_L2C WRITEBACK ACCESS:    1211265  HIT:    1208973  MISS:       2292
cpu0_L2C TRANSLATION ACCESS:       4917  HIT:       4635  MISS:        282
cpu0_L2C PREFETCH  REQUESTED:          0  ISSUED:          0  USEFUL:          0  USELESS:          0
cpu0_L2C AVERAGE MISS LATENCY: 899.06 cycles
LLC TOTAL     ACCESS:    3927043  HIT:     372599  MISS:    3554444
LLC LOAD      ACCESS:    2298600  HIT:     228113  MISS:    2070487
LLC RFO       ACCESS:     695868  HIT:      46372  MISS:     649496
LLC PREFETCH  ACCESS:          0  HIT:          0  MISS:          0
LLC WRITEBACK ACCESS:     932293  HIT:      97930  MISS:     834363
LLC TRANSLATION ACCESS:        282  HIT:        184  MISS:         98
LLC PREFETCH  REQUESTED:          0  ISSUED:          0  USEFUL:          0  USELESS:          0
LLC AVERAGE MISS LATENCY: 740.347 cycles
Insertion Distribution: 
	LOAD 75633 0 0 0 0 0 0 0 0 0 0 0 0 0 75305 2083663 
	RFO 4078 0 0 0 0 0 0 0 0 0 0 0 0 0 11476 636552 
	PREF 0 0 0 0 0 0 0 0 0 0 0 0 0 0 0 0 
	WRITEBACK 0 0 0 0 0 0 0 0 0 0 0 0 0 0 0 853132 
	 3 0 0 0 0 0 0 0 0 0 0 0 0 0 33 77 
Total Prefetch Downgrades: 0

DRAM Statistics
 CHANNEL 0
 RQ ROW_BUFFER_HIT:     169694  ROW_BUFFER_MISS:    2550266
 DBUS AVG_CONGESTED_CYCLE:    3.97665
 WQ ROW_BUFFER_HIT:      52351  ROW_BUFFER_MISS:     814244  FULL:      12834


CPU 0 Branch Prediction Accuracy: 96.9231% MPKI: 1.73686 Average ROB Occupancy at Mispredict: 311.366
Branch type MPKI
BRANCH_DIRECT_JUMP: 0.00082
BRANCH_INDIRECT: 0.00014
BRANCH_CONDITIONAL: 1.73229
BRANCH_DIRECT_CALL: 0.00185
BRANCH_INDIRECT_CALL: 3e-05
BRANCH_RETURN: 0.00173

