
*** ChampSim Multicore Out-of-Order Simulator ***

Warmup Instructions: 10000000
Simulation Instructions: 100000000
Number of CPUs: 1
Off-chip DRAM Size: 4 GiB Channels: 1 Width: 64-bit Data Rate: 3200 MT/s

VirtualMemory physical capacity: 8588881920 num_ppages: 2096895
VirtualMemory page size: 4096 log2_page_size: 12

CPU 0 runs /datasets/cs240c-wi22-a00-public/data/Assignment2/sphinx3_883B.trace.xz
CPU 0 Bimodal branch predictor
Basic BTB sets: 1024 ways: 8 indirect buffer size: 4096 RAS size: 64
Initialize SRRIP state
Heartbeat CPU 0 instructions: 10000004 cycles: 2628880 heartbeat IPC: 3.8039 cumulative IPC: 3.8039 (Simulation time: 0 hr 0 min 29 sec) 

Warmup complete CPU 0 instructions: 10000004 cycles: 2628880 (Simulation time: 0 hr 0 min 29 sec) 

Heartbeat CPU 0 instructions: 20000003 cycles: 15171183 heartbeat IPC: 0.797302 cumulative IPC: 0.797302 (Simulation time: 0 hr 1 min 32 sec) 
Heartbeat CPU 0 instructions: 30000000 cycles: 28093182 heartbeat IPC: 0.773874 cumulative IPC: 0.785413 (Simulation time: 0 hr 2 min 36 sec) 
Heartbeat CPU 0 instructions: 40000004 cycles: 40073792 heartbeat IPC: 0.834682 cumulative IPC: 0.801177 (Simulation time: 0 hr 3 min 37 sec) 
Heartbeat CPU 0 instructions: 50000003 cycles: 51686201 heartbeat IPC: 0.861148 cumulative IPC: 0.815373 (Simulation time: 0 hr 4 min 36 sec) 
Heartbeat CPU 0 instructions: 60000000 cycles: 61677140 heartbeat IPC: 1.00091 cumulative IPC: 0.846765 (Simulation time: 0 hr 5 min 34 sec) 
Heartbeat CPU 0 instructions: 70000000 cycles: 70571547 heartbeat IPC: 1.1243 cumulative IPC: 0.883097 (Simulation time: 0 hr 6 min 27 sec) 
Heartbeat CPU 0 instructions: 80000000 cycles: 80579838 heartbeat IPC: 0.999172 cumulative IPC: 0.898 (Simulation time: 0 hr 7 min 22 sec) 
Heartbeat CPU 0 instructions: 90000002 cycles: 89232691 heartbeat IPC: 1.15569 cumulative IPC: 0.923747 (Simulation time: 0 hr 8 min 12 sec) 
Heartbeat CPU 0 instructions: 100000003 cycles: 97237844 heartbeat IPC: 1.2492 cumulative IPC: 0.951284 (Simulation time: 0 hr 9 min 1 sec) 
Heartbeat CPU 0 instructions: 110000003 cycles: 107140249 heartbeat IPC: 1.00986 cumulative IPC: 0.956834 (Simulation time: 0 hr 9 min 56 sec) 
Finished CPU 0 instructions: 100000004 cycles: 104511370 cumulative IPC: 0.956834 (Simulation time: 0 hr 9 min 56 sec) 

ChampSim completed all CPUs

Region of Interest Statistics

CPU 0 cumulative IPC: 0.956834 instructions: 100000004 cycles: 104511370
cpu0_DTLB TOTAL     ACCESS:   16761131  HIT:   16601256  MISS:     159875
cpu0_DTLB LOAD      ACCESS:   15409174  HIT:   15257556  MISS:     151618
cpu0_DTLB RFO       ACCESS:    1351957  HIT:    1343700  MISS:       8257
cpu0_DTLB PREFETCH  ACCESS:          0  HIT:          0  MISS:          0
cpu0_DTLB WRITEBACK ACCESS:          0  HIT:          0  MISS:          0
cpu0_DTLB TRANSLATION ACCESS:          0  HIT:          0  MISS:          0
cpu0_DTLB PREFETCH  REQUESTED:          0  ISSUED:          0  USEFUL:          0  USELESS:          0
cpu0_DTLB AVERAGE MISS LATENCY: 12.7682 cycles
cpu0_ITLB TOTAL     ACCESS:    9407877  HIT:    9407812  MISS:         65
cpu0_ITLB LOAD      ACCESS:    9407877  HIT:    9407812  MISS:         65
cpu0_ITLB RFO       ACCESS:          0  HIT:          0  MISS:          0
cpu0_ITLB PREFETCH  ACCESS:          0  HIT:          0  MISS:          0
cpu0_ITLB WRITEBACK ACCESS:          0  HIT:          0  MISS:          0
cpu0_ITLB TRANSLATION ACCESS:          0  HIT:          0  MISS:          0
cpu0_ITLB PREFETCH  REQUESTED:          0  ISSUED:          0  USEFUL:          0  USELESS:          0
cpu0_ITLB AVERAGE MISS LATENCY: 148.385 cycles
cpu0_L1I TOTAL     ACCESS:     192460  HIT:     191080  MISS:       1380
cpu0_L1I LOAD      ACCESS:     192460  HIT:     191080  MISS:       1380
cpu0_L1I RFO       ACCESS:          0  HIT:          0  MISS:          0
cpu0_L1I PREFETCH  ACCESS:          0  HIT:          0  MISS:          0
cpu0_L1I WRITEBACK ACCESS:          0  HIT:          0  MISS:          0
cpu0_L1I TRANSLATION ACCESS:          0  HIT:          0  MISS:          0
cpu0_L1I PREFETCH  REQUESTED:          0  ISSUED:          0  USEFUL:          0  USELESS:          0
cpu0_L1I AVERAGE MISS LATENCY: 205.062 cycles
cpu0_STLB TOTAL     ACCESS:     159940  HIT:      99043  MISS:      60897
cpu0_STLB LOAD      ACCESS:     151683  HIT:      91996  MISS:      59687
cpu0_STLB RFO       ACCESS:       8257  HIT:       7047  MISS:       1210
cpu0_STLB PREFETCH  ACCESS:          0  HIT:          0  MISS:          0
cpu0_STLB WRITEBACK ACCESS:          0  HIT:          0  MISS:          0
cpu0_STLB TRANSLATION ACCESS:          0  HIT:          0  MISS:          0
cpu0_STLB PREFETCH  REQUESTED:          0  ISSUED:          0  USEFUL:          0  USELESS:          0
cpu0_STLB AVERAGE MISS LATENCY: 9.91684 cycles
cpu0_L1D TOTAL     ACCESS:   12889196  HIT:   11139878  MISS:    1749318
cpu0_L1D LOAD      ACCESS:   10653046  HIT:    9018654  MISS:    1634392
cpu0_L1D RFO       ACCESS:    2178037  HIT:    2063904  MISS:     114133
cpu0_L1D PREFETCH  ACCESS:          0  HIT:          0  MISS:          0
cpu0_L1D WRITEBACK ACCESS:          0  HIT:          0  MISS:          0
cpu0_L1D TRANSLATION ACCESS:      58113  HIT:      57320  MISS:        793
cpu0_L1D PREFETCH  REQUESTED:          0  ISSUED:          0  USEFUL:          0  USELESS:          0
cpu0_L1D AVERAGE MISS LATENCY: 110.733 cycles
cpu0_L2C TOTAL     ACCESS:    1908287  HIT:     517707  MISS:    1390580
cpu0_L2C LOAD      ACCESS:    1635769  HIT:     346951  MISS:    1288818
cpu0_L2C RFO       ACCESS:     114129  HIT:      12985  MISS:     101144
cpu0_L2C PREFETCH  ACCESS:          0  HIT:          0  MISS:          0
cpu0_L2C WRITEBACK ACCESS:     157596  HIT:     157299  MISS:        297
cpu0_L2C TRANSLATION ACCESS:        793  HIT:        472  MISS:        321
cpu0_L2C PREFETCH  REQUESTED:          0  ISSUED:          0  USEFUL:          0  USELESS:          0
cpu0_L2C AVERAGE MISS LATENCY: 125.597 cycles
LLC TOTAL     ACCESS:    1524830  HIT:     752665  MISS:     772165
LLC LOAD      ACCESS:    1288818  HIT:     631357  MISS:     657461
LLC RFO       ACCESS:     101144  HIT:      45434  MISS:      55710
LLC PREFETCH  ACCESS:          0  HIT:          0  MISS:          0
LLC WRITEBACK ACCESS:     134547  HIT:      75556  MISS:      58991
LLC TRANSLATION ACCESS:        321  HIT:        318  MISS:          3
LLC PREFETCH  REQUESTED:          0  ISSUED:          0  USEFUL:          0  USELESS:          0
LLC AVERAGE MISS LATENCY: 188.346 cycles
Insertion Distribution: 
	LOAD 4969 0 105803 662824 
	RFO 0 0 4726 56554 
	PREF 0 0 0 0 
	WRITEBACK 0 0 0 61043 
	 0 0 18 0 
Total Prefetch Downgrades: 0

DRAM Statistics
 CHANNEL 0
 RQ ROW_BUFFER_HIT:      96022  ROW_BUFFER_MISS:     617129
 DBUS AVG_CONGESTED_CYCLE:     3.8224
 WQ ROW_BUFFER_HIT:      26410  ROW_BUFFER_MISS:      39566  FULL:       6816


CPU 0 Branch Prediction Accuracy: 91.645% MPKI: 7.87682 Average ROB Occupancy at Mispredict: 155.542
Branch type MPKI
BRANCH_DIRECT_JUMP: 0.0017
BRANCH_INDIRECT: 0.00111
BRANCH_CONDITIONAL: 7.87013
BRANCH_DIRECT_CALL: 0.00166
BRANCH_INDIRECT_CALL: 0.0005
BRANCH_RETURN: 0.00172

