
*** ChampSim Multicore Out-of-Order Simulator ***

Warmup Instructions: 10000000
Simulation Instructions: 100000000
Number of CPUs: 1
Off-chip DRAM Size: 4 GiB Channels: 1 Width: 64-bit Data Rate: 3200 MT/s

VirtualMemory physical capacity: 8588881920 num_ppages: 2096895
VirtualMemory page size: 4096 log2_page_size: 12

CPU 0 runs /datasets/cs240c-wi22-a00-public/data/Assignment2/zeusmp_300B.trace.xz
CPU 0 Bimodal branch predictor
Basic BTB sets: 1024 ways: 8 indirect buffer size: 4096 RAS size: 64
Initialize SRRIP state
Heartbeat CPU 0 instructions: 10000000 cycles: 2814860 heartbeat IPC: 3.55257 cumulative IPC: 3.55257 (Simulation time: 0 hr 0 min 31 sec) 

Warmup complete CPU 0 instructions: 10000002 cycles: 2814863 (Simulation time: 0 hr 0 min 31 sec) 

Heartbeat CPU 0 instructions: 20000004 cycles: 8429848 heartbeat IPC: 1.78095 cumulative IPC: 1.78095 (Simulation time: 0 hr 1 min 21 sec) 
Heartbeat CPU 0 instructions: 30000004 cycles: 14048899 heartbeat IPC: 1.77966 cumulative IPC: 1.7803 (Simulation time: 0 hr 2 min 10 sec) 
Heartbeat CPU 0 instructions: 40000003 cycles: 19664895 heartbeat IPC: 1.78063 cumulative IPC: 1.78041 (Simulation time: 0 hr 3 min 0 sec) 
Heartbeat CPU 0 instructions: 50000004 cycles: 25332736 heartbeat IPC: 1.76434 cumulative IPC: 1.77637 (Simulation time: 0 hr 3 min 52 sec) 
Heartbeat CPU 0 instructions: 60000001 cycles: 30993285 heartbeat IPC: 1.76661 cumulative IPC: 1.77441 (Simulation time: 0 hr 4 min 40 sec) 
Heartbeat CPU 0 instructions: 70000000 cycles: 36642611 heartbeat IPC: 1.77012 cumulative IPC: 1.77369 (Simulation time: 0 hr 5 min 29 sec) 
Heartbeat CPU 0 instructions: 80000000 cycles: 42274643 heartbeat IPC: 1.77556 cumulative IPC: 1.77396 (Simulation time: 0 hr 6 min 19 sec) 
Heartbeat CPU 0 instructions: 90000003 cycles: 47930817 heartbeat IPC: 1.76798 cumulative IPC: 1.77321 (Simulation time: 0 hr 7 min 7 sec) 
Heartbeat CPU 0 instructions: 100000000 cycles: 53572798 heartbeat IPC: 1.77243 cumulative IPC: 1.77312 (Simulation time: 0 hr 7 min 55 sec) 
Heartbeat CPU 0 instructions: 110000000 cycles: 59145174 heartbeat IPC: 1.79457 cumulative IPC: 1.77524 (Simulation time: 0 hr 8 min 44 sec) 
Finished CPU 0 instructions: 100000003 cycles: 56330312 cumulative IPC: 1.77524 (Simulation time: 0 hr 8 min 44 sec) 

ChampSim completed all CPUs

Region of Interest Statistics

CPU 0 cumulative IPC: 1.77524 instructions: 100000003 cycles: 56330312
cpu0_DTLB TOTAL     ACCESS:   16102692  HIT:   15019626  MISS:    1083066
cpu0_DTLB LOAD      ACCESS:   10874980  HIT:    9809670  MISS:    1065310
cpu0_DTLB RFO       ACCESS:    5227712  HIT:    5209956  MISS:      17756
cpu0_DTLB PREFETCH  ACCESS:          0  HIT:          0  MISS:          0
cpu0_DTLB WRITEBACK ACCESS:          0  HIT:          0  MISS:          0
cpu0_DTLB TRANSLATION ACCESS:          0  HIT:          0  MISS:          0
cpu0_DTLB PREFETCH  REQUESTED:          0  ISSUED:          0  USEFUL:          0  USELESS:          0
cpu0_DTLB AVERAGE MISS LATENCY: 10.4523 cycles
cpu0_ITLB TOTAL     ACCESS:    1804332  HIT:    1804332  MISS:          0
cpu0_ITLB LOAD      ACCESS:    1804332  HIT:    1804332  MISS:          0
cpu0_ITLB RFO       ACCESS:          0  HIT:          0  MISS:          0
cpu0_ITLB PREFETCH  ACCESS:          0  HIT:          0  MISS:          0
cpu0_ITLB WRITEBACK ACCESS:          0  HIT:          0  MISS:          0
cpu0_ITLB TRANSLATION ACCESS:          0  HIT:          0  MISS:          0
cpu0_ITLB PREFETCH  REQUESTED:          0  ISSUED:          0  USEFUL:          0  USELESS:          0
cpu0_ITLB AVERAGE MISS LATENCY: -nan cycles
cpu0_L1I TOTAL     ACCESS:    2750647  HIT:    2750647  MISS:          0
cpu0_L1I LOAD      ACCESS:    2750647  HIT:    2750647  MISS:          0
cpu0_L1I RFO       ACCESS:          0  HIT:          0  MISS:          0
cpu0_L1I PREFETCH  ACCESS:          0  HIT:          0  MISS:          0
cpu0_L1I WRITEBACK ACCESS:          0  HIT:          0  MISS:          0
cpu0_L1I TRANSLATION ACCESS:          0  HIT:          0  MISS:          0
cpu0_L1I PREFETCH  REQUESTED:          0  ISSUED:          0  USEFUL:          0  USELESS:          0
cpu0_L1I AVERAGE MISS LATENCY: -nan cycles
cpu0_STLB TOTAL     ACCESS:    1083066  HIT:    1076097  MISS:       6969
cpu0_STLB LOAD      ACCESS:    1065310  HIT:    1060394  MISS:       4916
cpu0_STLB RFO       ACCESS:      17756  HIT:      15703  MISS:       2053
cpu0_STLB PREFETCH  ACCESS:          0  HIT:          0  MISS:          0
cpu0_STLB WRITEBACK ACCESS:          0  HIT:          0  MISS:          0
cpu0_STLB TRANSLATION ACCESS:          0  HIT:          0  MISS:          0
cpu0_STLB PREFETCH  REQUESTED:          0  ISSUED:          0  USEFUL:          0  USELESS:          0
cpu0_STLB AVERAGE MISS LATENCY: 200.926 cycles
cpu0_L1D TOTAL     ACCESS:   18600901  HIT:   17940111  MISS:     660790
cpu0_L1D LOAD      ACCESS:   10915316  HIT:   10434580  MISS:     480736
cpu0_L1D RFO       ACCESS:    7678933  HIT:    7503513  MISS:     175420
cpu0_L1D PREFETCH  ACCESS:          0  HIT:          0  MISS:          0
cpu0_L1D WRITEBACK ACCESS:          0  HIT:          0  MISS:          0
cpu0_L1D TRANSLATION ACCESS:       6652  HIT:       2018  MISS:       4634
cpu0_L1D PREFETCH  REQUESTED:          0  ISSUED:          0  USEFUL:          0  USELESS:          0
cpu0_L1D AVERAGE MISS LATENCY: 138.418 cycles
cpu0_L2C TOTAL     ACCESS:     838857  HIT:     409936  MISS:     428921
cpu0_L2C LOAD      ACCESS:     480707  HIT:     197414  MISS:     283293
cpu0_L2C RFO       ACCESS:     175373  HIT:      34910  MISS:     140463
cpu0_L2C PREFETCH  ACCESS:          0  HIT:          0  MISS:          0
cpu0_L2C WRITEBACK ACCESS:     178143  HIT:     173212  MISS:       4931
cpu0_L2C TRANSLATION ACCESS:       4634  HIT:       4400  MISS:        234
cpu0_L2C PREFETCH  REQUESTED:          0  ISSUED:          0  USEFUL:          0  USELESS:          0
cpu0_L2C AVERAGE MISS LATENCY: 196.282 cycles
LLC TOTAL     ACCESS:     580541  HIT:     239864  MISS:     340677
LLC LOAD      ACCESS:     283293  HIT:      88831  MISS:     194462
LLC RFO       ACCESS:     140463  HIT:      64259  MISS:      76204
LLC PREFETCH  ACCESS:          0  HIT:          0  MISS:          0
LLC WRITEBACK ACCESS:     156551  HIT:      86542  MISS:      70009
LLC TRANSLATION ACCESS:        234  HIT:        232  MISS:          2
LLC PREFETCH  REQUESTED:          0  ISSUED:          0  USEFUL:          0  USELESS:          0
LLC AVERAGE MISS LATENCY: 220.989 cycles
Insertion Distribution: 
	LOAD 0 0 58651 158021 
	RFO 0 0 11820 74790 
	PREF 0 0 0 0 
	WRITEBACK 0 0 0 70036 
	 0 0 24 2 
Total Prefetch Downgrades: 0

DRAM Statistics
 CHANNEL 0
 RQ ROW_BUFFER_HIT:      21255  ROW_BUFFER_MISS:     249413
 DBUS AVG_CONGESTED_CYCLE:    3.99131
 WQ ROW_BUFFER_HIT:       5735  ROW_BUFFER_MISS:      74057  FULL:          0


CPU 0 Branch Prediction Accuracy: 98.8423% MPKI: 0.45019 Average ROB Occupancy at Mispredict: 206.363
Branch type MPKI
BRANCH_DIRECT_JUMP: 0
BRANCH_INDIRECT: 0
BRANCH_CONDITIONAL: 0.45019
BRANCH_DIRECT_CALL: 0
BRANCH_INDIRECT_CALL: 0
BRANCH_RETURN: 0

