
*** ChampSim Multicore Out-of-Order Simulator ***

Warmup Instructions: 10000000
Simulation Instructions: 100000000
Number of CPUs: 1
Off-chip DRAM Size: 4 GiB Channels: 1 Width: 64-bit Data Rate: 3200 MT/s

VirtualMemory physical capacity: 8588881920 num_ppages: 2096895
VirtualMemory page size: 4096 log2_page_size: 12

CPU 0 runs /datasets/cs240c-wi22-a00-public/data/Assignment2/calculix_3812B.trace.xz
CPU 0 Bimodal branch predictor
Basic BTB sets: 1024 ways: 8 indirect buffer size: 4096 RAS size: 64
Initialize SRRIP state
Heartbeat CPU 0 instructions: 10000000 cycles: 2819851 heartbeat IPC: 3.54629 cumulative IPC: 3.54629 (Simulation time: 0 hr 0 min 31 sec) 

Warmup complete CPU 0 instructions: 10000004 cycles: 2819852 (Simulation time: 0 hr 0 min 31 sec) 

Heartbeat CPU 0 instructions: 20000004 cycles: 6546598 heartbeat IPC: 2.68331 cumulative IPC: 2.68331 (Simulation time: 0 hr 1 min 2 sec) 
Heartbeat CPU 0 instructions: 30000001 cycles: 10290479 heartbeat IPC: 2.67102 cumulative IPC: 2.67715 (Simulation time: 0 hr 1 min 33 sec) 
Heartbeat CPU 0 instructions: 40000000 cycles: 13979754 heartbeat IPC: 2.71056 cumulative IPC: 2.6882 (Simulation time: 0 hr 2 min 23 sec) 
Heartbeat CPU 0 instructions: 50000001 cycles: 18224148 heartbeat IPC: 2.35605 cumulative IPC: 2.59668 (Simulation time: 0 hr 3 min 6 sec) 
Heartbeat CPU 0 instructions: 60000000 cycles: 22095018 heartbeat IPC: 2.5834 cumulative IPC: 2.59401 (Simulation time: 0 hr 3 min 37 sec) 
Heartbeat CPU 0 instructions: 70000000 cycles: 25925676 heartbeat IPC: 2.61052 cumulative IPC: 2.59675 (Simulation time: 0 hr 4 min 10 sec) 
Heartbeat CPU 0 instructions: 80000001 cycles: 29669744 heartbeat IPC: 2.67089 cumulative IPC: 2.60709 (Simulation time: 0 hr 4 min 54 sec) 
Heartbeat CPU 0 instructions: 90000004 cycles: 33708692 heartbeat IPC: 2.47589 cumulative IPC: 2.58993 (Simulation time: 0 hr 5 min 35 sec) 
Heartbeat CPU 0 instructions: 100000001 cycles: 37257874 heartbeat IPC: 2.81755 cumulative IPC: 2.61339 (Simulation time: 0 hr 6 min 5 sec) 
Heartbeat CPU 0 instructions: 110000002 cycles: 40975238 heartbeat IPC: 2.69008 cumulative IPC: 2.62086 (Simulation time: 0 hr 6 min 37 sec) 
Finished CPU 0 instructions: 100000003 cycles: 38155387 cumulative IPC: 2.62086 (Simulation time: 0 hr 6 min 37 sec) 

ChampSim completed all CPUs

Region of Interest Statistics

CPU 0 cumulative IPC: 2.62086 instructions: 100000003 cycles: 38155387
cpu0_DTLB TOTAL     ACCESS:   14471599  HIT:   14444310  MISS:      27289
cpu0_DTLB LOAD      ACCESS:   12814349  HIT:   12788177  MISS:      26172
cpu0_DTLB RFO       ACCESS:    1657250  HIT:    1656133  MISS:       1117
cpu0_DTLB PREFETCH  ACCESS:          0  HIT:          0  MISS:          0
cpu0_DTLB WRITEBACK ACCESS:          0  HIT:          0  MISS:          0
cpu0_DTLB TRANSLATION ACCESS:          0  HIT:          0  MISS:          0
cpu0_DTLB PREFETCH  REQUESTED:          0  ISSUED:          0  USEFUL:          0  USELESS:          0
cpu0_DTLB AVERAGE MISS LATENCY: 14.9439 cycles
cpu0_ITLB TOTAL     ACCESS:    5702995  HIT:    5702967  MISS:         28
cpu0_ITLB LOAD      ACCESS:    5702995  HIT:    5702967  MISS:         28
cpu0_ITLB RFO       ACCESS:          0  HIT:          0  MISS:          0
cpu0_ITLB PREFETCH  ACCESS:          0  HIT:          0  MISS:          0
cpu0_ITLB WRITEBACK ACCESS:          0  HIT:          0  MISS:          0
cpu0_ITLB TRANSLATION ACCESS:          0  HIT:          0  MISS:          0
cpu0_ITLB PREFETCH  REQUESTED:          0  ISSUED:          0  USEFUL:          0  USELESS:          0
cpu0_ITLB AVERAGE MISS LATENCY: 9 cycles
cpu0_L1I TOTAL     ACCESS:     869573  HIT:     868808  MISS:        765
cpu0_L1I LOAD      ACCESS:     869573  HIT:     868808  MISS:        765
cpu0_L1I RFO       ACCESS:          0  HIT:          0  MISS:          0
cpu0_L1I PREFETCH  ACCESS:          0  HIT:          0  MISS:          0
cpu0_L1I WRITEBACK ACCESS:          0  HIT:          0  MISS:          0
cpu0_L1I TRANSLATION ACCESS:          0  HIT:          0  MISS:          0
cpu0_L1I PREFETCH  REQUESTED:          0  ISSUED:          0  USEFUL:          0  USELESS:          0
cpu0_L1I AVERAGE MISS LATENCY: 68.4967 cycles
cpu0_STLB TOTAL     ACCESS:      27317  HIT:      26543  MISS:        774
cpu0_STLB LOAD      ACCESS:      26200  HIT:      25860  MISS:        340
cpu0_STLB RFO       ACCESS:       1117  HIT:        683  MISS:        434
cpu0_STLB PREFETCH  ACCESS:          0  HIT:          0  MISS:          0
cpu0_STLB WRITEBACK ACCESS:          0  HIT:          0  MISS:          0
cpu0_STLB TRANSLATION ACCESS:          0  HIT:          0  MISS:          0
cpu0_STLB PREFETCH  REQUESTED:          0  ISSUED:          0  USEFUL:          0  USELESS:          0
cpu0_STLB AVERAGE MISS LATENCY: 209.491 cycles
cpu0_L1D TOTAL     ACCESS:   16685409  HIT:   15358117  MISS:    1327292
cpu0_L1D LOAD      ACCESS:   11967345  HIT:   10692255  MISS:    1275090
cpu0_L1D RFO       ACCESS:    4717293  HIT:    4665138  MISS:      52155
cpu0_L1D PREFETCH  ACCESS:          0  HIT:          0  MISS:          0
cpu0_L1D WRITEBACK ACCESS:          0  HIT:          0  MISS:          0
cpu0_L1D TRANSLATION ACCESS:        771  HIT:        724  MISS:         47
cpu0_L1D PREFETCH  REQUESTED:          0  ISSUED:          0  USEFUL:          0  USELESS:          0
cpu0_L1D AVERAGE MISS LATENCY: 29.8988 cycles
cpu0_L2C TOTAL     ACCESS:    1837960  HIT:    1545989  MISS:     291971
cpu0_L2C LOAD      ACCESS:    1275844  HIT:    1023138  MISS:     252706
cpu0_L2C RFO       ACCESS:      52155  HIT:      13804  MISS:      38351
cpu0_L2C PREFETCH  ACCESS:          0  HIT:          0  MISS:          0
cpu0_L2C WRITEBACK ACCESS:     509914  HIT:     509016  MISS:        898
cpu0_L2C TRANSLATION ACCESS:         47  HIT:         31  MISS:         16
cpu0_L2C PREFETCH  REQUESTED:          0  ISSUED:          0  USEFUL:          0  USELESS:          0
cpu0_L2C AVERAGE MISS LATENCY: 85.3588 cycles
LLC TOTAL     ACCESS:     431013  HIT:     316296  MISS:     114717
LLC LOAD      ACCESS:     252703  HIT:     182255  MISS:      70448
LLC RFO       ACCESS:      38349  HIT:       8414  MISS:      29935
LLC PREFETCH  ACCESS:          0  HIT:          0  MISS:          0
LLC WRITEBACK ACCESS:     139945  HIT:     125614  MISS:      14331
LLC TRANSLATION ACCESS:         16  HIT:         13  MISS:          3
LLC PREFETCH  REQUESTED:          0  ISSUED:          0  USEFUL:          0  USELESS:          0
LLC AVERAGE MISS LATENCY: 163.587 cycles
Insertion Distribution: 
	LOAD 122 0 30031 47732 
	RFO 6135 0 15975 13885 
	PREF 0 0 0 0 
	WRITEBACK 0 0 0 14331 
	 0 0 13 3 
Total Prefetch Downgrades: 0

DRAM Statistics
 CHANNEL 0
 RQ ROW_BUFFER_HIT:      64396  ROW_BUFFER_MISS:      35823
 DBUS AVG_CONGESTED_CYCLE:    3.93521
 WQ ROW_BUFFER_HIT:       3903  ROW_BUFFER_MISS:      19173  FULL:      20588


CPU 0 Branch Prediction Accuracy: 96.6151% MPKI: 1.9742 Average ROB Occupancy at Mispredict: 165.607
Branch type MPKI
BRANCH_DIRECT_JUMP: 0.00017
BRANCH_INDIRECT: 0.00062
BRANCH_CONDITIONAL: 1.97308
BRANCH_DIRECT_CALL: 0.00017
BRANCH_INDIRECT_CALL: 0
BRANCH_RETURN: 0.00016

