
*** ChampSim Multicore Out-of-Order Simulator ***

Warmup Instructions: 10000000
Simulation Instructions: 100000000
Number of CPUs: 1
Off-chip DRAM Size: 4 GiB Channels: 1 Width: 64-bit Data Rate: 3200 MT/s

VirtualMemory physical capacity: 8588881920 num_ppages: 2096895
VirtualMemory page size: 4096 log2_page_size: 12

CPU 0 runs /datasets/cs240c-wi22-a00-public/data/Assignment2/sphinx3_883B.trace.xz
CPU 0 Bimodal branch predictor
Basic BTB sets: 1024 ways: 8 indirect buffer size: 4096 RAS size: 64
Initialize SRRIP state
Heartbeat CPU 0 instructions: 10000004 cycles: 2628880 heartbeat IPC: 3.8039 cumulative IPC: 3.8039 (Simulation time: 0 hr 0 min 33 sec) 

Warmup complete CPU 0 instructions: 10000004 cycles: 2628880 (Simulation time: 0 hr 0 min 33 sec) 

Heartbeat CPU 0 instructions: 20000000 cycles: 14749667 heartbeat IPC: 0.825029 cumulative IPC: 0.825029 (Simulation time: 0 hr 1 min 38 sec) 
Heartbeat CPU 0 instructions: 30000001 cycles: 27311361 heartbeat IPC: 0.796071 cumulative IPC: 0.810291 (Simulation time: 0 hr 2 min 44 sec) 
Heartbeat CPU 0 instructions: 40000004 cycles: 39326275 heartbeat IPC: 0.832299 cumulative IPC: 0.817497 (Simulation time: 0 hr 3 min 50 sec) 
Heartbeat CPU 0 instructions: 50000001 cycles: 50900873 heartbeat IPC: 0.863961 cumulative IPC: 0.828638 (Simulation time: 0 hr 4 min 53 sec) 
Heartbeat CPU 0 instructions: 60000000 cycles: 61871905 heartbeat IPC: 0.911491 cumulative IPC: 0.843981 (Simulation time: 0 hr 5 min 57 sec) 
Heartbeat CPU 0 instructions: 70000000 cycles: 70716149 heartbeat IPC: 1.13068 cumulative IPC: 0.881222 (Simulation time: 0 hr 6 min 51 sec) 
Heartbeat CPU 0 instructions: 80000000 cycles: 81036021 heartbeat IPC: 0.969004 cumulative IPC: 0.892776 (Simulation time: 0 hr 7 min 51 sec) 
Heartbeat CPU 0 instructions: 90000002 cycles: 89401261 heartbeat IPC: 1.19542 cumulative IPC: 0.921952 (Simulation time: 0 hr 8 min 44 sec) 
Heartbeat CPU 0 instructions: 100000003 cycles: 96943795 heartbeat IPC: 1.32581 cumulative IPC: 0.95425 (Simulation time: 0 hr 9 min 34 sec) 
Heartbeat CPU 0 instructions: 110000003 cycles: 106610721 heartbeat IPC: 1.03446 cumulative IPC: 0.961706 (Simulation time: 0 hr 10 min 32 sec) 
Finished CPU 0 instructions: 100000004 cycles: 103981842 cumulative IPC: 0.961706 (Simulation time: 0 hr 10 min 32 sec) 

ChampSim completed all CPUs

Region of Interest Statistics

CPU 0 cumulative IPC: 0.961706 instructions: 100000004 cycles: 103981842
cpu0_DTLB TOTAL     ACCESS:   16748451  HIT:   16588525  MISS:     159926
cpu0_DTLB LOAD      ACCESS:   15408814  HIT:   15257124  MISS:     151690
cpu0_DTLB RFO       ACCESS:    1339637  HIT:    1331401  MISS:       8236
cpu0_DTLB PREFETCH  ACCESS:          0  HIT:          0  MISS:          0
cpu0_DTLB WRITEBACK ACCESS:          0  HIT:          0  MISS:          0
cpu0_DTLB TRANSLATION ACCESS:          0  HIT:          0  MISS:          0
cpu0_DTLB PREFETCH  REQUESTED:          0  ISSUED:          0  USEFUL:          0  USELESS:          0
cpu0_DTLB AVERAGE MISS LATENCY: 12.7958 cycles
cpu0_ITLB TOTAL     ACCESS:    9429435  HIT:    9429370  MISS:         65
cpu0_ITLB LOAD      ACCESS:    9429435  HIT:    9429370  MISS:         65
cpu0_ITLB RFO       ACCESS:          0  HIT:          0  MISS:          0
cpu0_ITLB PREFETCH  ACCESS:          0  HIT:          0  MISS:          0
cpu0_ITLB WRITEBACK ACCESS:          0  HIT:          0  MISS:          0
cpu0_ITLB TRANSLATION ACCESS:          0  HIT:          0  MISS:          0
cpu0_ITLB PREFETCH  REQUESTED:          0  ISSUED:          0  USEFUL:          0  USELESS:          0
cpu0_ITLB AVERAGE MISS LATENCY: 148.738 cycles
cpu0_L1I TOTAL     ACCESS:     192295  HIT:     190918  MISS:       1377
cpu0_L1I LOAD      ACCESS:     192295  HIT:     190918  MISS:       1377
cpu0_L1I RFO       ACCESS:          0  HIT:          0  MISS:          0
cpu0_L1I PREFETCH  ACCESS:          0  HIT:          0  MISS:          0
cpu0_L1I WRITEBACK ACCESS:          0  HIT:          0  MISS:          0
cpu0_L1I TRANSLATION ACCESS:          0  HIT:          0  MISS:          0
cpu0_L1I PREFETCH  REQUESTED:          0  ISSUED:          0  USEFUL:          0  USELESS:          0
cpu0_L1I AVERAGE MISS LATENCY: 202.306 cycles
cpu0_STLB TOTAL     ACCESS:     159991  HIT:      99094  MISS:      60897
cpu0_STLB LOAD      ACCESS:     151755  HIT:      92077  MISS:      59678
cpu0_STLB RFO       ACCESS:       8236  HIT:       7017  MISS:       1219
cpu0_STLB PREFETCH  ACCESS:          0  HIT:          0  MISS:          0
cpu0_STLB WRITEBACK ACCESS:          0  HIT:          0  MISS:          0
cpu0_STLB TRANSLATION ACCESS:          0  HIT:          0  MISS:          0
cpu0_STLB PREFETCH  REQUESTED:          0  ISSUED:          0  USEFUL:          0  USELESS:          0
cpu0_STLB AVERAGE MISS LATENCY: 9.99256 cycles
cpu0_L1D TOTAL     ACCESS:   12897653  HIT:   11148349  MISS:    1749304
cpu0_L1D LOAD      ACCESS:   10663284  HIT:    9028907  MISS:    1634377
cpu0_L1D RFO       ACCESS:    2176255  HIT:    2062122  MISS:     114133
cpu0_L1D PREFETCH  ACCESS:          0  HIT:          0  MISS:          0
cpu0_L1D WRITEBACK ACCESS:          0  HIT:          0  MISS:          0
cpu0_L1D TRANSLATION ACCESS:      58114  HIT:      57320  MISS:        794
cpu0_L1D PREFETCH  REQUESTED:          0  ISSUED:          0  USEFUL:          0  USELESS:          0
cpu0_L1D AVERAGE MISS LATENCY: 108.497 cycles
cpu0_L2C TOTAL     ACCESS:    1908261  HIT:     517687  MISS:    1390574
cpu0_L2C LOAD      ACCESS:    1635751  HIT:     346939  MISS:    1288812
cpu0_L2C RFO       ACCESS:     114128  HIT:      12985  MISS:     101143
cpu0_L2C PREFETCH  ACCESS:          0  HIT:          0  MISS:          0
cpu0_L2C WRITEBACK ACCESS:     157588  HIT:     157291  MISS:        297
cpu0_L2C TRANSLATION ACCESS:        794  HIT:        472  MISS:        322
cpu0_L2C PREFETCH  REQUESTED:          0  ISSUED:          0  USEFUL:          0  USELESS:          0
cpu0_L2C AVERAGE MISS LATENCY: 122.78 cycles
LLC TOTAL     ACCESS:    1524814  HIT:     787404  MISS:     737410
LLC LOAD      ACCESS:    1288812  HIT:     622417  MISS:     666395
LLC RFO       ACCESS:     101143  HIT:      64034  MISS:      37109
LLC PREFETCH  ACCESS:          0  HIT:          0  MISS:          0
LLC WRITEBACK ACCESS:     134537  HIT:     100655  MISS:      33882
LLC TRANSLATION ACCESS:        322  HIT:        298  MISS:         24
LLC PREFETCH  REQUESTED:          0  ISSUED:          0  USEFUL:          0  USELESS:          0
LLC AVERAGE MISS LATENCY: 191.91 cycles
Insertion Distribution: 
	LOAD 35490 0 146797 600881 
	RFO 3077 0 9865 29689 
	PREF 0 0 0 0 
	WRITEBACK 0 0 0 34298 
	 1 0 35 3 
Total Prefetch Downgrades: 0

DRAM Statistics
 CHANNEL 0
 RQ ROW_BUFFER_HIT:      76871  ROW_BUFFER_MISS:     626381
 DBUS AVG_CONGESTED_CYCLE:    3.80691
 WQ ROW_BUFFER_HIT:      15675  ROW_BUFFER_MISS:      32604  FULL:      13660


CPU 0 Branch Prediction Accuracy: 91.645% MPKI: 7.87682 Average ROB Occupancy at Mispredict: 154.335
Branch type MPKI
BRANCH_DIRECT_JUMP: 0.0017
BRANCH_INDIRECT: 0.00111
BRANCH_CONDITIONAL: 7.87013
BRANCH_DIRECT_CALL: 0.00166
BRANCH_INDIRECT_CALL: 0.0005
BRANCH_RETURN: 0.00172

