
*** ChampSim Multicore Out-of-Order Simulator ***

Warmup Instructions: 10000000
Simulation Instructions: 100000000
Number of CPUs: 1
Off-chip DRAM Size: 4 GiB Channels: 1 Width: 64-bit Data Rate: 3200 MT/s

VirtualMemory physical capacity: 8588881920 num_ppages: 2096895
VirtualMemory page size: 4096 log2_page_size: 12

CPU 0 runs /datasets/cs240c-wi22-a00-public/data/Assignment2/omnetpp_4B.trace.xz
CPU 0 Bimodal branch predictor
Basic BTB sets: 1024 ways: 8 indirect buffer size: 4096 RAS size: 64
Initialize SRRIP state
Heartbeat CPU 0 instructions: 10000002 cycles: 2526499 heartbeat IPC: 3.95805 cumulative IPC: 3.95805 (Simulation time: 0 hr 0 min 22 sec) 

Warmup complete CPU 0 instructions: 10000002 cycles: 2526499 (Simulation time: 0 hr 0 min 22 sec) 

Heartbeat CPU 0 instructions: 20000000 cycles: 9277477 heartbeat IPC: 1.48127 cumulative IPC: 1.48127 (Simulation time: 0 hr 0 min 53 sec) 
Heartbeat CPU 0 instructions: 30000001 cycles: 15962224 heartbeat IPC: 1.49594 cumulative IPC: 1.48857 (Simulation time: 0 hr 1 min 29 sec) 
Heartbeat CPU 0 instructions: 40000002 cycles: 22868878 heartbeat IPC: 1.44788 cumulative IPC: 1.47475 (Simulation time: 0 hr 2 min 4 sec) 
Heartbeat CPU 0 instructions: 50000000 cycles: 29699517 heartbeat IPC: 1.46399 cumulative IPC: 1.47205 (Simulation time: 0 hr 2 min 39 sec) 
Heartbeat CPU 0 instructions: 60000000 cycles: 36351243 heartbeat IPC: 1.50337 cumulative IPC: 1.47821 (Simulation time: 0 hr 3 min 15 sec) 
Heartbeat CPU 0 instructions: 70000000 cycles: 43101736 heartbeat IPC: 1.48137 cumulative IPC: 1.47873 (Simulation time: 0 hr 3 min 49 sec) 
Heartbeat CPU 0 instructions: 80000000 cycles: 49758420 heartbeat IPC: 1.50225 cumulative IPC: 1.48205 (Simulation time: 0 hr 4 min 24 sec) 
Heartbeat CPU 0 instructions: 90000000 cycles: 56858834 heartbeat IPC: 1.40837 cumulative IPC: 1.47242 (Simulation time: 0 hr 5 min 4 sec) 
Heartbeat CPU 0 instructions: 100000001 cycles: 63255478 heartbeat IPC: 1.56332 cumulative IPC: 1.48199 (Simulation time: 0 hr 5 min 34 sec) 
Heartbeat CPU 0 instructions: 110000002 cycles: 69965651 heartbeat IPC: 1.49027 cumulative IPC: 1.48282 (Simulation time: 0 hr 6 min 8 sec) 
Finished CPU 0 instructions: 100000000 cycles: 67439152 cumulative IPC: 1.48282 (Simulation time: 0 hr 6 min 8 sec) 

ChampSim completed all CPUs

Region of Interest Statistics

CPU 0 cumulative IPC: 1.48282 instructions: 100000000 cycles: 67439152
cpu0_DTLB TOTAL     ACCESS:   11700396  HIT:   10268530  MISS:    1431866
cpu0_DTLB LOAD      ACCESS:    9114100  HIT:    7683799  MISS:    1430301
cpu0_DTLB RFO       ACCESS:    2586296  HIT:    2584731  MISS:       1565
cpu0_DTLB PREFETCH  ACCESS:          0  HIT:          0  MISS:          0
cpu0_DTLB WRITEBACK ACCESS:          0  HIT:          0  MISS:          0
cpu0_DTLB TRANSLATION ACCESS:          0  HIT:          0  MISS:          0
cpu0_DTLB PREFETCH  REQUESTED:          0  ISSUED:          0  USEFUL:          0  USELESS:          0
cpu0_DTLB AVERAGE MISS LATENCY: 17.567 cycles
cpu0_ITLB TOTAL     ACCESS:    7987638  HIT:    7963471  MISS:      24167
cpu0_ITLB LOAD      ACCESS:    7987638  HIT:    7963471  MISS:      24167
cpu0_ITLB RFO       ACCESS:          0  HIT:          0  MISS:          0
cpu0_ITLB PREFETCH  ACCESS:          0  HIT:          0  MISS:          0
cpu0_ITLB WRITEBACK ACCESS:          0  HIT:          0  MISS:          0
cpu0_ITLB TRANSLATION ACCESS:          0  HIT:          0  MISS:          0
cpu0_ITLB PREFETCH  REQUESTED:          0  ISSUED:          0  USEFUL:          0  USELESS:          0
cpu0_ITLB AVERAGE MISS LATENCY: 10.8503 cycles
cpu0_L1I TOTAL     ACCESS:    1939481  HIT:    1876621  MISS:      62860
cpu0_L1I LOAD      ACCESS:    1939481  HIT:    1876621  MISS:      62860
cpu0_L1I RFO       ACCESS:          0  HIT:          0  MISS:          0
cpu0_L1I PREFETCH  ACCESS:          0  HIT:          0  MISS:          0
cpu0_L1I WRITEBACK ACCESS:          0  HIT:          0  MISS:          0
cpu0_L1I TRANSLATION ACCESS:          0  HIT:          0  MISS:          0
cpu0_L1I PREFETCH  REQUESTED:          0  ISSUED:          0  USEFUL:          0  USELESS:          0
cpu0_L1I AVERAGE MISS LATENCY: 44.5394 cycles
cpu0_STLB TOTAL     ACCESS:    1456033  HIT:      23479  MISS:    1432554
cpu0_STLB LOAD      ACCESS:    1454468  HIT:      22731  MISS:    1431737
cpu0_STLB RFO       ACCESS:       1565  HIT:        748  MISS:        817
cpu0_STLB PREFETCH  ACCESS:          0  HIT:          0  MISS:          0
cpu0_STLB WRITEBACK ACCESS:          0  HIT:          0  MISS:          0
cpu0_STLB TRANSLATION ACCESS:          0  HIT:          0  MISS:          0
cpu0_STLB PREFETCH  REQUESTED:          0  ISSUED:          0  USEFUL:          0  USELESS:          0
cpu0_STLB AVERAGE MISS LATENCY: 8.15775 cycles
cpu0_L1D TOTAL     ACCESS:   12589875  HIT:   10099956  MISS:    2489919
cpu0_L1D LOAD      ACCESS:    7305122  HIT:    4853915  MISS:    2451207
cpu0_L1D RFO       ACCESS:    4653326  HIT:    4615615  MISS:      37711
cpu0_L1D PREFETCH  ACCESS:          0  HIT:          0  MISS:          0
cpu0_L1D WRITEBACK ACCESS:          0  HIT:          0  MISS:          0
cpu0_L1D TRANSLATION ACCESS:     631427  HIT:     630426  MISS:       1001
cpu0_L1D PREFETCH  REQUESTED:          0  ISSUED:          0  USEFUL:          0  USELESS:          0
cpu0_L1D AVERAGE MISS LATENCY: 66.7021 cycles
cpu0_L2C TOTAL     ACCESS:    2633728  HIT:     114331  MISS:    2519397
cpu0_L2C LOAD      ACCESS:    2514066  HIT:      32381  MISS:    2481685
cpu0_L2C RFO       ACCESS:      37711  HIT:        795  MISS:      36916
cpu0_L2C PREFETCH  ACCESS:          0  HIT:          0  MISS:          0
cpu0_L2C WRITEBACK ACCESS:      80950  HIT:      80950  MISS:          0
cpu0_L2C TRANSLATION ACCESS:       1001  HIT:        205  MISS:        796
cpu0_L2C PREFETCH  REQUESTED:          0  ISSUED:          0  USEFUL:          0  USELESS:          0
cpu0_L2C AVERAGE MISS LATENCY: 55.2368 cycles
LLC TOTAL     ACCESS:    2598939  HIT:    2306625  MISS:     292314
LLC LOAD      ACCESS:    2481684  HIT:    2211246  MISS:     270438
LLC RFO       ACCESS:      36916  HIT:      20355  MISS:      16561
LLC PREFETCH  ACCESS:          0  HIT:          0  MISS:          0
LLC WRITEBACK ACCESS:      79543  HIT:      74333  MISS:       5210
LLC TRANSLATION ACCESS:        796  HIT:        691  MISS:        105
LLC PREFETCH  REQUESTED:          0  ISSUED:          0  USEFUL:          0  USELESS:          0
LLC AVERAGE MISS LATENCY: 294.991 cycles
Insertion Distribution: 
	LOAD 133306 0 142080 61056 
	RFO 3492 0 6604 8415 
	PREF 0 0 0 0 
	WRITEBACK 0 0 0 5832 
	 23 0 114 5 
Total Prefetch Downgrades: 0

DRAM Statistics
 CHANNEL 0
 RQ ROW_BUFFER_HIT:      23364  ROW_BUFFER_MISS:     262361
 DBUS AVG_CONGESTED_CYCLE:    3.94627
 WQ ROW_BUFFER_HIT:       5109  ROW_BUFFER_MISS:      42535  FULL:          0


CPU 0 Branch Prediction Accuracy: 97.4293% MPKI: 8.26178 Average ROB Occupancy at Mispredict: 57.0177
Branch type MPKI
BRANCH_DIRECT_JUMP: 0.00037
BRANCH_INDIRECT: 0.12485
BRANCH_CONDITIONAL: 8.10493
BRANCH_DIRECT_CALL: 0.00326
BRANCH_INDIRECT_CALL: 0.00558
BRANCH_RETURN: 0.02279

