
*** ChampSim Multicore Out-of-Order Simulator ***

Warmup Instructions: 10000000
Simulation Instructions: 100000000
Number of CPUs: 1
Off-chip DRAM Size: 4 GiB Channels: 1 Width: 64-bit Data Rate: 3200 MT/s

VirtualMemory physical capacity: 8588881920 num_ppages: 2096895
VirtualMemory page size: 4096 log2_page_size: 12

CPU 0 runs /datasets/cs240c-wi22-a00-public/data/Assignment2/libquantum_1735B.trace.xz
CPU 0 Bimodal branch predictor
Basic BTB sets: 1024 ways: 8 indirect buffer size: 4096 RAS size: 64
Initialize SRRIP state
Heartbeat CPU 0 instructions: 10000002 cycles: 2500058 heartbeat IPC: 3.99991 cumulative IPC: 3.99991 (Simulation time: 0 hr 0 min 26 sec) 

Warmup complete CPU 0 instructions: 10000002 cycles: 2500058 (Simulation time: 0 hr 0 min 26 sec) 

Heartbeat CPU 0 instructions: 20000003 cycles: 36696351 heartbeat IPC: 0.292429 cumulative IPC: 0.292429 (Simulation time: 0 hr 1 min 43 sec) 
Heartbeat CPU 0 instructions: 30000001 cycles: 70279428 heartbeat IPC: 0.297769 cumulative IPC: 0.295075 (Simulation time: 0 hr 2 min 59 sec) 
Heartbeat CPU 0 instructions: 40000003 cycles: 109578287 heartbeat IPC: 0.25446 cumulative IPC: 0.280169 (Simulation time: 0 hr 4 min 19 sec) 
Heartbeat CPU 0 instructions: 50000002 cycles: 147458193 heartbeat IPC: 0.263992 cumulative IPC: 0.275942 (Simulation time: 0 hr 5 min 37 sec) 
Heartbeat CPU 0 instructions: 60000001 cycles: 152479529 heartbeat IPC: 1.9915 cumulative IPC: 0.333379 (Simulation time: 0 hr 6 min 26 sec) 
Heartbeat CPU 0 instructions: 70000002 cycles: 157352643 heartbeat IPC: 2.05208 cumulative IPC: 0.387465 (Simulation time: 0 hr 7 min 13 sec) 
Heartbeat CPU 0 instructions: 80000000 cycles: 195874673 heartbeat IPC: 0.259592 cumulative IPC: 0.361992 (Simulation time: 0 hr 8 min 31 sec) 
Heartbeat CPU 0 instructions: 90000000 cycles: 234873925 heartbeat IPC: 0.256415 cumulative IPC: 0.344273 (Simulation time: 0 hr 9 min 48 sec) 
Heartbeat CPU 0 instructions: 100000000 cycles: 292124797 heartbeat IPC: 0.17467 cumulative IPC: 0.310747 (Simulation time: 0 hr 11 min 25 sec) 
Heartbeat CPU 0 instructions: 110000003 cycles: 332309124 heartbeat IPC: 0.248853 cumulative IPC: 0.303206 (Simulation time: 0 hr 12 min 45 sec) 
Finished CPU 0 instructions: 100000001 cycles: 329809066 cumulative IPC: 0.303206 (Simulation time: 0 hr 12 min 45 sec) 

ChampSim completed all CPUs

Region of Interest Statistics

CPU 0 cumulative IPC: 0.303206 instructions: 100000001 cycles: 329809066
cpu0_DTLB TOTAL     ACCESS:    9923580  HIT:    9879977  MISS:      43603
cpu0_DTLB LOAD      ACCESS:    8290492  HIT:    8246894  MISS:      43598
cpu0_DTLB RFO       ACCESS:    1633088  HIT:    1633083  MISS:          5
cpu0_DTLB PREFETCH  ACCESS:          0  HIT:          0  MISS:          0
cpu0_DTLB WRITEBACK ACCESS:          0  HIT:          0  MISS:          0
cpu0_DTLB TRANSLATION ACCESS:          0  HIT:          0  MISS:          0
cpu0_DTLB PREFETCH  REQUESTED:          0  ISSUED:          0  USEFUL:          0  USELESS:          0
cpu0_DTLB AVERAGE MISS LATENCY: 35.7566 cycles
cpu0_ITLB TOTAL     ACCESS:    4579402  HIT:    4579402  MISS:          0
cpu0_ITLB LOAD      ACCESS:    4579402  HIT:    4579402  MISS:          0
cpu0_ITLB RFO       ACCESS:          0  HIT:          0  MISS:          0
cpu0_ITLB PREFETCH  ACCESS:          0  HIT:          0  MISS:          0
cpu0_ITLB WRITEBACK ACCESS:          0  HIT:          0  MISS:          0
cpu0_ITLB TRANSLATION ACCESS:          0  HIT:          0  MISS:          0
cpu0_ITLB PREFETCH  REQUESTED:          0  ISSUED:          0  USEFUL:          0  USELESS:          0
cpu0_ITLB AVERAGE MISS LATENCY: -nan cycles
cpu0_L1I TOTAL     ACCESS:         20  HIT:         11  MISS:          9
cpu0_L1I LOAD      ACCESS:         20  HIT:         11  MISS:          9
cpu0_L1I RFO       ACCESS:          0  HIT:          0  MISS:          0
cpu0_L1I PREFETCH  ACCESS:          0  HIT:          0  MISS:          0
cpu0_L1I WRITEBACK ACCESS:          0  HIT:          0  MISS:          0
cpu0_L1I TRANSLATION ACCESS:          0  HIT:          0  MISS:          0
cpu0_L1I PREFETCH  REQUESTED:          0  ISSUED:          0  USEFUL:          0  USELESS:          0
cpu0_L1I AVERAGE MISS LATENCY: 184 cycles
cpu0_STLB TOTAL     ACCESS:      43603  HIT:          0  MISS:      43603
cpu0_STLB LOAD      ACCESS:      43598  HIT:          0  MISS:      43598
cpu0_STLB RFO       ACCESS:          5  HIT:          0  MISS:          5
cpu0_STLB PREFETCH  ACCESS:          0  HIT:          0  MISS:          0
cpu0_STLB WRITEBACK ACCESS:          0  HIT:          0  MISS:          0
cpu0_STLB TRANSLATION ACCESS:          0  HIT:          0  MISS:          0
cpu0_STLB PREFETCH  REQUESTED:          0  ISSUED:          0  USEFUL:          0  USELESS:          0
cpu0_STLB AVERAGE MISS LATENCY: 26.7566 cycles
cpu0_L1D TOTAL     ACCESS:    6546493  HIT:    3757060  MISS:    2789433
cpu0_L1D LOAD      ACCESS:    4614386  HIT:    1825003  MISS:    2789383
cpu0_L1D RFO       ACCESS:    1888504  HIT:    1888484  MISS:         20
cpu0_L1D PREFETCH  ACCESS:          0  HIT:          0  MISS:          0
cpu0_L1D WRITEBACK ACCESS:          0  HIT:          0  MISS:          0
cpu0_L1D TRANSLATION ACCESS:      43603  HIT:      43573  MISS:         30
cpu0_L1D PREFETCH  REQUESTED:          0  ISSUED:          0  USEFUL:          0  USELESS:          0
cpu0_L1D AVERAGE MISS LATENCY: 163.053 cycles
cpu0_L2C TOTAL     ACCESS:    3804021  HIT:    1014579  MISS:    2789442
cpu0_L2C LOAD      ACCESS:    2789392  HIT:          0  MISS:    2789392
cpu0_L2C RFO       ACCESS:         20  HIT:          0  MISS:         20
cpu0_L2C PREFETCH  ACCESS:          0  HIT:          0  MISS:          0
cpu0_L2C WRITEBACK ACCESS:    1014579  HIT:    1014579  MISS:          0
cpu0_L2C TRANSLATION ACCESS:         30  HIT:          0  MISS:         30
cpu0_L2C PREFETCH  REQUESTED:          0  ISSUED:          0  USEFUL:          0  USELESS:          0
cpu0_L2C AVERAGE MISS LATENCY: 152.05 cycles
LLC TOTAL     ACCESS:    3798498  HIT:     158162  MISS:    3640336
LLC LOAD      ACCESS:    2789392  HIT:     136686  MISS:    2652706
LLC RFO       ACCESS:         20  HIT:          4  MISS:         16
LLC PREFETCH  ACCESS:          0  HIT:          0  MISS:          0
LLC WRITEBACK ACCESS:    1009056  HIT:      21462  MISS:     987594
LLC TRANSLATION ACCESS:         30  HIT:         10  MISS:         20
LLC PREFETCH  REQUESTED:          0  ISSUED:          0  USEFUL:          0  USELESS:          0
LLC AVERAGE MISS LATENCY: 100.418 cycles
Insertion Distribution: 
	LOAD 5313 0 87881 2823585 
	RFO 0 0 20 0 
	PREF 0 0 0 0 
	WRITEBACK 0 0 0 1111172 
	 0 0 19 14 
Total Prefetch Downgrades: 0

DRAM Statistics
 CHANNEL 0
 RQ ROW_BUFFER_HIT:    1345993  ROW_BUFFER_MISS:    1306739
 DBUS AVG_CONGESTED_CYCLE:    3.73458
 WQ ROW_BUFFER_HIT:     325523  ROW_BUFFER_MISS:     665896  FULL:       1287


CPU 0 Branch Prediction Accuracy: 89.0086% MPKI: 24.5272 Average ROB Occupancy at Mispredict: 3.91516
Branch type MPKI
BRANCH_DIRECT_JUMP: 2e-05
BRANCH_INDIRECT: 0
BRANCH_CONDITIONAL: 24.527
BRANCH_DIRECT_CALL: 8e-05
BRANCH_INDIRECT_CALL: 0
BRANCH_RETURN: 8e-05

