
*** ChampSim Multicore Out-of-Order Simulator ***

Warmup Instructions: 10000000
Simulation Instructions: 100000000
Number of CPUs: 1
Off-chip DRAM Size: 4 GiB Channels: 1 Width: 64-bit Data Rate: 3200 MT/s

VirtualMemory physical capacity: 8588881920 num_ppages: 2096895
VirtualMemory page size: 4096 log2_page_size: 12

CPU 0 runs /datasets/cs240c-wi22-a00-public/data/Assignment2/zeusmp_100B.trace.xz
CPU 0 Bimodal branch predictor
Basic BTB sets: 1024 ways: 8 indirect buffer size: 4096 RAS size: 64
Initialize SRRIP state
Heartbeat CPU 0 instructions: 10000000 cycles: 2533557 heartbeat IPC: 3.94702 cumulative IPC: 3.94702 (Simulation time: 0 hr 0 min 29 sec) 

Warmup complete CPU 0 instructions: 10000004 cycles: 2533558 (Simulation time: 0 hr 0 min 29 sec) 

Heartbeat CPU 0 instructions: 20000003 cycles: 8022349 heartbeat IPC: 1.8219 cumulative IPC: 1.82189 (Simulation time: 0 hr 1 min 22 sec) 
Heartbeat CPU 0 instructions: 30000000 cycles: 13943068 heartbeat IPC: 1.68898 cumulative IPC: 1.75292 (Simulation time: 0 hr 2 min 19 sec) 
Heartbeat CPU 0 instructions: 40000004 cycles: 19871970 heartbeat IPC: 1.68665 cumulative IPC: 1.73026 (Simulation time: 0 hr 3 min 14 sec) 
Heartbeat CPU 0 instructions: 50000001 cycles: 25787304 heartbeat IPC: 1.69052 cumulative IPC: 1.72015 (Simulation time: 0 hr 4 min 10 sec) 
Heartbeat CPU 0 instructions: 60000004 cycles: 31720211 heartbeat IPC: 1.68551 cumulative IPC: 1.71311 (Simulation time: 0 hr 5 min 6 sec) 
Heartbeat CPU 0 instructions: 70000001 cycles: 37610372 heartbeat IPC: 1.69775 cumulative IPC: 1.71053 (Simulation time: 0 hr 6 min 1 sec) 
Heartbeat CPU 0 instructions: 80000001 cycles: 43530692 heartbeat IPC: 1.6891 cumulative IPC: 1.70744 (Simulation time: 0 hr 6 min 57 sec) 
Heartbeat CPU 0 instructions: 90000000 cycles: 49458235 heartbeat IPC: 1.68704 cumulative IPC: 1.70486 (Simulation time: 0 hr 7 min 52 sec) 
Heartbeat CPU 0 instructions: 100000000 cycles: 55353775 heartbeat IPC: 1.6962 cumulative IPC: 1.70389 (Simulation time: 0 hr 8 min 47 sec) 
Heartbeat CPU 0 instructions: 110000003 cycles: 61281531 heartbeat IPC: 1.68698 cumulative IPC: 1.70219 (Simulation time: 0 hr 9 min 43 sec) 
Finished CPU 0 instructions: 100000004 cycles: 58747974 cumulative IPC: 1.70219 (Simulation time: 0 hr 9 min 43 sec) 

ChampSim completed all CPUs

Region of Interest Statistics

CPU 0 cumulative IPC: 1.70219 instructions: 100000004 cycles: 58747974
cpu0_DTLB TOTAL     ACCESS:   16441543  HIT:   12276433  MISS:    4165110
cpu0_DTLB LOAD      ACCESS:   11961121  HIT:    9303812  MISS:    2657309
cpu0_DTLB RFO       ACCESS:    4480422  HIT:    2972621  MISS:    1507801
cpu0_DTLB PREFETCH  ACCESS:          0  HIT:          0  MISS:          0
cpu0_DTLB WRITEBACK ACCESS:          0  HIT:          0  MISS:          0
cpu0_DTLB TRANSLATION ACCESS:          0  HIT:          0  MISS:          0
cpu0_DTLB PREFETCH  REQUESTED:          0  ISSUED:          0  USEFUL:          0  USELESS:          0
cpu0_DTLB AVERAGE MISS LATENCY: 10.3988 cycles
cpu0_ITLB TOTAL     ACCESS:    2227408  HIT:    2227407  MISS:          1
cpu0_ITLB LOAD      ACCESS:    2227408  HIT:    2227407  MISS:          1
cpu0_ITLB RFO       ACCESS:          0  HIT:          0  MISS:          0
cpu0_ITLB PREFETCH  ACCESS:          0  HIT:          0  MISS:          0
cpu0_ITLB WRITEBACK ACCESS:          0  HIT:          0  MISS:          0
cpu0_ITLB TRANSLATION ACCESS:          0  HIT:          0  MISS:          0
cpu0_ITLB PREFETCH  REQUESTED:          0  ISSUED:          0  USEFUL:          0  USELESS:          0
cpu0_ITLB AVERAGE MISS LATENCY: 412 cycles
cpu0_L1I TOTAL     ACCESS:    3117811  HIT:    3117760  MISS:         51
cpu0_L1I LOAD      ACCESS:    3117811  HIT:    3117760  MISS:         51
cpu0_L1I RFO       ACCESS:          0  HIT:          0  MISS:          0
cpu0_L1I PREFETCH  ACCESS:          0  HIT:          0  MISS:          0
cpu0_L1I WRITEBACK ACCESS:          0  HIT:          0  MISS:          0
cpu0_L1I TRANSLATION ACCESS:          0  HIT:          0  MISS:          0
cpu0_L1I PREFETCH  REQUESTED:          0  ISSUED:          0  USEFUL:          0  USELESS:          0
cpu0_L1I AVERAGE MISS LATENCY: 316.137 cycles
cpu0_STLB TOTAL     ACCESS:    4165111  HIT:    4156672  MISS:       8439
cpu0_STLB LOAD      ACCESS:    2657310  HIT:    2652147  MISS:       5163
cpu0_STLB RFO       ACCESS:    1507801  HIT:    1504525  MISS:       3276
cpu0_STLB PREFETCH  ACCESS:          0  HIT:          0  MISS:          0
cpu0_STLB WRITEBACK ACCESS:          0  HIT:          0  MISS:          0
cpu0_STLB TRANSLATION ACCESS:          0  HIT:          0  MISS:          0
cpu0_STLB PREFETCH  REQUESTED:          0  ISSUED:          0  USEFUL:          0  USELESS:          0
cpu0_STLB AVERAGE MISS LATENCY: 558.032 cycles
cpu0_L1D TOTAL     ACCESS:   19017741  HIT:   13988497  MISS:    5029244
cpu0_L1D LOAD      ACCESS:   12122686  HIT:    8893183  MISS:    3229503
cpu0_L1D RFO       ACCESS:    6886719  HIT:    5094675  MISS:    1792044
cpu0_L1D PREFETCH  ACCESS:          0  HIT:          0  MISS:          0
cpu0_L1D WRITEBACK ACCESS:          0  HIT:          0  MISS:          0
cpu0_L1D TRANSLATION ACCESS:       8336  HIT:        639  MISS:       7697
cpu0_L1D PREFETCH  REQUESTED:          0  ISSUED:          0  USEFUL:          0  USELESS:          0
cpu0_L1D AVERAGE MISS LATENCY: 87.1054 cycles
cpu0_L2C TOTAL     ACCESS:    6849979  HIT:    6262455  MISS:     587524
cpu0_L2C LOAD      ACCESS:    3229283  HIT:    2835300  MISS:     393983
cpu0_L2C RFO       ACCESS:    1790676  HIT:    1597414  MISS:     193262
cpu0_L2C PREFETCH  ACCESS:          0  HIT:          0  MISS:          0
cpu0_L2C WRITEBACK ACCESS:    1822323  HIT:    1822051  MISS:        272
cpu0_L2C TRANSLATION ACCESS:       7697  HIT:       7690  MISS:          7
cpu0_L2C PREFETCH  REQUESTED:          0  ISSUED:          0  USEFUL:          0  USELESS:          0
cpu0_L2C AVERAGE MISS LATENCY: 650.64 cycles
LLC TOTAL     ACCESS:     780572  HIT:      89482  MISS:     691090
LLC LOAD      ACCESS:     393983  HIT:      81850  MISS:     312133
LLC RFO       ACCESS:     193262  HIT:          0  MISS:     193262
LLC PREFETCH  ACCESS:          0  HIT:          0  MISS:          0
LLC WRITEBACK ACCESS:     193320  HIT:       7630  MISS:     185690
LLC TRANSLATION ACCESS:          7  HIT:          2  MISS:          5
LLC PREFETCH  REQUESTED:          0  ISSUED:          0  USEFUL:          0  USELESS:          0
LLC AVERAGE MISS LATENCY: 535.291 cycles
Insertion Distribution: 
	LOAD 92 0 128617 212530 
	RFO 0 0 12836 191903 
	PREF 0 0 0 0 
	WRITEBACK 0 0 0 186773 
	 0 0 25 2 
Total Prefetch Downgrades: 0

DRAM Statistics
 CHANNEL 0
 RQ ROW_BUFFER_HIT:        168  ROW_BUFFER_MISS:     505232
 DBUS AVG_CONGESTED_CYCLE:    3.99893
 WQ ROW_BUFFER_HIT:        361  ROW_BUFFER_MISS:     199907  FULL:          0


CPU 0 Branch Prediction Accuracy: 99.0158% MPKI: 0.52371 Average ROB Occupancy at Mispredict: 235.842
Branch type MPKI
BRANCH_DIRECT_JUMP: 1e-05
BRANCH_INDIRECT: 0
BRANCH_CONDITIONAL: 0.5237
BRANCH_DIRECT_CALL: 0
BRANCH_INDIRECT_CALL: 0
BRANCH_RETURN: 0

