
*** ChampSim Multicore Out-of-Order Simulator ***

Warmup Instructions: 10000000
Simulation Instructions: 100000000
Number of CPUs: 1
Off-chip DRAM Size: 4 GiB Channels: 1 Width: 64-bit Data Rate: 3200 MT/s

VirtualMemory physical capacity: 8588881920 num_ppages: 2096895
VirtualMemory page size: 4096 log2_page_size: 12

CPU 0 runs /datasets/cs240c-wi22-a00-public/data/Assignment2/mcf_250B.trace.xz
CPU 0 Bimodal branch predictor
Basic BTB sets: 1024 ways: 8 indirect buffer size: 4096 RAS size: 64
Initialize SRRIP state
Heartbeat CPU 0 instructions: 10000004 cycles: 3834267 heartbeat IPC: 2.60806 cumulative IPC: 2.60806 (Simulation time: 0 hr 0 min 58 sec) 

Warmup complete CPU 0 instructions: 10000004 cycles: 3834267 (Simulation time: 0 hr 0 min 58 sec) 

Heartbeat CPU 0 instructions: 20000000 cycles: 146651450 heartbeat IPC: 0.0700196 cumulative IPC: 0.0700196 (Simulation time: 0 hr 5 min 11 sec) 
Heartbeat CPU 0 instructions: 30000000 cycles: 284031121 heartbeat IPC: 0.072791 cumulative IPC: 0.0713784 (Simulation time: 0 hr 9 min 8 sec) 
Heartbeat CPU 0 instructions: 40000000 cycles: 428780926 heartbeat IPC: 0.0690847 cumulative IPC: 0.0705971 (Simulation time: 0 hr 13 min 15 sec) 
Heartbeat CPU 0 instructions: 50000000 cycles: 569180753 heartbeat IPC: 0.0712252 cumulative IPC: 0.0707531 (Simulation time: 0 hr 17 min 18 sec) 
Heartbeat CPU 0 instructions: 60000000 cycles: 709137750 heartbeat IPC: 0.0714505 cumulative IPC: 0.0708915 (Simulation time: 0 hr 21 min 23 sec) 
Heartbeat CPU 0 instructions: 70000000 cycles: 842060904 heartbeat IPC: 0.0752314 cumulative IPC: 0.0715797 (Simulation time: 0 hr 25 min 21 sec) 
Heartbeat CPU 0 instructions: 80000000 cycles: 984596589 heartbeat IPC: 0.0701579 cumulative IPC: 0.071373 (Simulation time: 0 hr 29 min 29 sec) 
Heartbeat CPU 0 instructions: 90000000 cycles: 1106226226 heartbeat IPC: 0.0822168 cumulative IPC: 0.0725695 (Simulation time: 0 hr 33 min 6 sec) 
Heartbeat CPU 0 instructions: 100000000 cycles: 1242255671 heartbeat IPC: 0.0735135 cumulative IPC: 0.0726732 (Simulation time: 0 hr 36 min 59 sec) 
Heartbeat CPU 0 instructions: 110000000 cycles: 1384800238 heartbeat IPC: 0.0701535 cumulative IPC: 0.0724131 (Simulation time: 0 hr 40 min 58 sec) 
Finished CPU 0 instructions: 100000000 cycles: 1380965982 cumulative IPC: 0.0724131 (Simulation time: 0 hr 40 min 58 sec) 

ChampSim completed all CPUs

Region of Interest Statistics

CPU 0 cumulative IPC: 0.0724131 instructions: 100000000 cycles: 1380965982
cpu0_DTLB TOTAL     ACCESS:   20766259  HIT:    2975999  MISS:   17790260
cpu0_DTLB LOAD      ACCESS:   20270359  HIT:    2535985  MISS:   17734374
cpu0_DTLB RFO       ACCESS:     495900  HIT:     440014  MISS:      55886
cpu0_DTLB PREFETCH  ACCESS:          0  HIT:          0  MISS:          0
cpu0_DTLB WRITEBACK ACCESS:          0  HIT:          0  MISS:          0
cpu0_DTLB TRANSLATION ACCESS:          0  HIT:          0  MISS:          0
cpu0_DTLB PREFETCH  REQUESTED:          0  ISSUED:          0  USEFUL:          0  USELESS:          0
cpu0_DTLB AVERAGE MISS LATENCY: 10.4018 cycles
cpu0_ITLB TOTAL     ACCESS:   11316114  HIT:   11316114  MISS:          0
cpu0_ITLB LOAD      ACCESS:   11316114  HIT:   11316114  MISS:          0
cpu0_ITLB RFO       ACCESS:          0  HIT:          0  MISS:          0
cpu0_ITLB PREFETCH  ACCESS:          0  HIT:          0  MISS:          0
cpu0_ITLB WRITEBACK ACCESS:          0  HIT:          0  MISS:          0
cpu0_ITLB TRANSLATION ACCESS:          0  HIT:          0  MISS:          0
cpu0_ITLB PREFETCH  REQUESTED:          0  ISSUED:          0  USEFUL:          0  USELESS:          0
cpu0_ITLB AVERAGE MISS LATENCY: -nan cycles
cpu0_L1I TOTAL     ACCESS:          4  HIT:          4  MISS:          0
cpu0_L1I LOAD      ACCESS:          4  HIT:          4  MISS:          0
cpu0_L1I RFO       ACCESS:          0  HIT:          0  MISS:          0
cpu0_L1I PREFETCH  ACCESS:          0  HIT:          0  MISS:          0
cpu0_L1I WRITEBACK ACCESS:          0  HIT:          0  MISS:          0
cpu0_L1I TRANSLATION ACCESS:          0  HIT:          0  MISS:          0
cpu0_L1I PREFETCH  REQUESTED:          0  ISSUED:          0  USEFUL:          0  USELESS:          0
cpu0_L1I AVERAGE MISS LATENCY: -nan cycles
cpu0_STLB TOTAL     ACCESS:   17790260  HIT:   17413096  MISS:     377164
cpu0_STLB LOAD      ACCESS:   17734374  HIT:   17359347  MISS:     375027
cpu0_STLB RFO       ACCESS:      55886  HIT:      53749  MISS:       2137
cpu0_STLB PREFETCH  ACCESS:          0  HIT:          0  MISS:          0
cpu0_STLB WRITEBACK ACCESS:          0  HIT:          0  MISS:          0
cpu0_STLB TRANSLATION ACCESS:          0  HIT:          0  MISS:          0
cpu0_STLB PREFETCH  REQUESTED:          0  ISSUED:          0  USEFUL:          0  USELESS:          0
cpu0_STLB AVERAGE MISS LATENCY: 66.0954 cycles
cpu0_L1D TOTAL     ACCESS:   21384065  HIT:    3440161  MISS:   17943904
cpu0_L1D LOAD      ACCESS:   20343247  HIT:    2559271  MISS:   17783976
cpu0_L1D RFO       ACCESS:     664698  HIT:     633040  MISS:      31658
cpu0_L1D PREFETCH  ACCESS:          0  HIT:          0  MISS:          0
cpu0_L1D WRITEBACK ACCESS:          0  HIT:          0  MISS:          0
cpu0_L1D TRANSLATION ACCESS:     376120  HIT:     247850  MISS:     128270
cpu0_L1D PREFETCH  REQUESTED:          0  ISSUED:          0  USEFUL:          0  USELESS:          0
cpu0_L1D AVERAGE MISS LATENCY: 227.57 cycles
cpu0_L2C TOTAL     ACCESS:   18302923  HIT:    5792716  MISS:   12510207
cpu0_L2C LOAD      ACCESS:   17783949  HIT:    5386645  MISS:   12397304
cpu0_L2C RFO       ACCESS:      31657  HIT:       9149  MISS:      22508
cpu0_L2C PREFETCH  ACCESS:          0  HIT:          0  MISS:          0
cpu0_L2C WRITEBACK ACCESS:     359047  HIT:     359045  MISS:          2
cpu0_L2C TRANSLATION ACCESS:     128270  HIT:      37877  MISS:      90393
cpu0_L2C PREFETCH  REQUESTED:          0  ISSUED:          0  USEFUL:          0  USELESS:          0
cpu0_L2C AVERAGE MISS LATENCY: 310.623 cycles
LLC TOTAL     ACCESS:   12800552  HIT:    5956217  MISS:    6844335
LLC LOAD      ACCESS:   12397304  HIT:    5666202  MISS:    6731102
LLC RFO       ACCESS:      22508  HIT:      13815  MISS:       8693
LLC PREFETCH  ACCESS:          0  HIT:          0  MISS:          0
LLC WRITEBACK ACCESS:     290347  HIT:     187369  MISS:     102978
LLC TRANSLATION ACCESS:      90393  HIT:      88831  MISS:       1562
LLC PREFETCH  REQUESTED:          0  ISSUED:          0  USEFUL:          0  USELESS:          0
LLC AVERAGE MISS LATENCY: 529.379 cycles
Insertion Distribution: 
	LOAD 15790 0 232346 7194096 
	RFO 1753 0 8565 2117 
	PREF 0 0 0 0 
	WRITEBACK 0 0 0 147513 
	 1 0 130 1631 
Total Prefetch Downgrades: 0

DRAM Statistics
 CHANNEL 0
 RQ ROW_BUFFER_HIT:       2735  ROW_BUFFER_MISS:    6738561
 DBUS AVG_CONGESTED_CYCLE:    3.96273
 WQ ROW_BUFFER_HIT:       9575  ROW_BUFFER_MISS:     132829  FULL:          0


CPU 0 Branch Prediction Accuracy: 91.6559% MPKI: 25.5287 Average ROB Occupancy at Mispredict: 24.5004
Branch type MPKI
BRANCH_DIRECT_JUMP: 2e-05
BRANCH_INDIRECT: 0
BRANCH_CONDITIONAL: 25.5287
BRANCH_DIRECT_CALL: 0
BRANCH_INDIRECT_CALL: 0
BRANCH_RETURN: 0

