
*** ChampSim Multicore Out-of-Order Simulator ***

Warmup Instructions: 10000000
Simulation Instructions: 100000000
Number of CPUs: 1
Off-chip DRAM Size: 4 GiB Channels: 1 Width: 64-bit Data Rate: 3200 MT/s

VirtualMemory physical capacity: 8588881920 num_ppages: 2096895
VirtualMemory page size: 4096 log2_page_size: 12

CPU 0 runs /datasets/cs240c-wi22-a00-public/data/Assignment2/wrf_1228B.trace.xz
CPU 0 Bimodal branch predictor
Basic BTB sets: 1024 ways: 8 indirect buffer size: 4096 RAS size: 64
Initialize SRRIP state
Heartbeat CPU 0 instructions: 10000001 cycles: 3904493 heartbeat IPC: 2.56115 cumulative IPC: 2.56115 (Simulation time: 0 hr 0 min 45 sec) 

Warmup complete CPU 0 instructions: 10000001 cycles: 3904493 (Simulation time: 0 hr 0 min 45 sec) 

Heartbeat CPU 0 instructions: 20000001 cycles: 12381238 heartbeat IPC: 1.1797 cumulative IPC: 1.1797 (Simulation time: 0 hr 1 min 49 sec) 
Heartbeat CPU 0 instructions: 30000003 cycles: 23943788 heartbeat IPC: 0.864861 cumulative IPC: 0.998039 (Simulation time: 0 hr 3 min 5 sec) 
Heartbeat CPU 0 instructions: 40000000 cycles: 37790641 heartbeat IPC: 0.722186 cumulative IPC: 0.885318 (Simulation time: 0 hr 4 min 34 sec) 
Heartbeat CPU 0 instructions: 50000001 cycles: 45976780 heartbeat IPC: 1.22158 cumulative IPC: 0.950745 (Simulation time: 0 hr 5 min 36 sec) 
Heartbeat CPU 0 instructions: 60000003 cycles: 55749177 heartbeat IPC: 1.02329 cumulative IPC: 0.964419 (Simulation time: 0 hr 6 min 45 sec) 
Heartbeat CPU 0 instructions: 70000001 cycles: 66927650 heartbeat IPC: 0.894576 cumulative IPC: 0.952031 (Simulation time: 0 hr 7 min 50 sec) 
Heartbeat CPU 0 instructions: 80000004 cycles: 76637803 heartbeat IPC: 1.02985 cumulative IPC: 0.96242 (Simulation time: 0 hr 8 min 42 sec) 
Heartbeat CPU 0 instructions: 90000001 cycles: 86322958 heartbeat IPC: 1.03251 cumulative IPC: 0.970656 (Simulation time: 0 hr 9 min 34 sec) 
Heartbeat CPU 0 instructions: 100000002 cycles: 96001458 heartbeat IPC: 1.03322 cumulative IPC: 0.977231 (Simulation time: 0 hr 10 min 24 sec) 
Heartbeat CPU 0 instructions: 110000000 cycles: 105671786 heartbeat IPC: 1.03409 cumulative IPC: 0.982634 (Simulation time: 0 hr 11 min 16 sec) 
Finished CPU 0 instructions: 100000004 cycles: 101767294 cumulative IPC: 0.982634 (Simulation time: 0 hr 11 min 16 sec) 

ChampSim completed all CPUs

Region of Interest Statistics

CPU 0 cumulative IPC: 0.982634 instructions: 100000004 cycles: 101767294
cpu0_DTLB TOTAL     ACCESS:   19660791  HIT:   19564554  MISS:      96237
cpu0_DTLB LOAD      ACCESS:   17650175  HIT:   17568246  MISS:      81929
cpu0_DTLB RFO       ACCESS:    2010616  HIT:    1996308  MISS:      14308
cpu0_DTLB PREFETCH  ACCESS:          0  HIT:          0  MISS:          0
cpu0_DTLB WRITEBACK ACCESS:          0  HIT:          0  MISS:          0
cpu0_DTLB TRANSLATION ACCESS:          0  HIT:          0  MISS:          0
cpu0_DTLB PREFETCH  REQUESTED:          0  ISSUED:          0  USEFUL:          0  USELESS:          0
cpu0_DTLB AVERAGE MISS LATENCY: 20.0676 cycles
cpu0_ITLB TOTAL     ACCESS:    4196931  HIT:    4196919  MISS:         12
cpu0_ITLB LOAD      ACCESS:    4196931  HIT:    4196919  MISS:         12
cpu0_ITLB RFO       ACCESS:          0  HIT:          0  MISS:          0
cpu0_ITLB PREFETCH  ACCESS:          0  HIT:          0  MISS:          0
cpu0_ITLB WRITEBACK ACCESS:          0  HIT:          0  MISS:          0
cpu0_ITLB TRANSLATION ACCESS:          0  HIT:          0  MISS:          0
cpu0_ITLB PREFETCH  REQUESTED:          0  ISSUED:          0  USEFUL:          0  USELESS:          0
cpu0_ITLB AVERAGE MISS LATENCY: 220.583 cycles
cpu0_L1I TOTAL     ACCESS:    6671404  HIT:    6670656  MISS:        748
cpu0_L1I LOAD      ACCESS:    6671404  HIT:    6670656  MISS:        748
cpu0_L1I RFO       ACCESS:          0  HIT:          0  MISS:          0
cpu0_L1I PREFETCH  ACCESS:          0  HIT:          0  MISS:          0
cpu0_L1I WRITEBACK ACCESS:          0  HIT:          0  MISS:          0
cpu0_L1I TRANSLATION ACCESS:          0  HIT:          0  MISS:          0
cpu0_L1I PREFETCH  REQUESTED:          0  ISSUED:          0  USEFUL:          0  USELESS:          0
cpu0_L1I AVERAGE MISS LATENCY: 349.513 cycles
cpu0_STLB TOTAL     ACCESS:      96249  HIT:      86695  MISS:       9554
cpu0_STLB LOAD      ACCESS:      81941  HIT:      75033  MISS:       6908
cpu0_STLB RFO       ACCESS:      14308  HIT:      11662  MISS:       2646
cpu0_STLB PREFETCH  ACCESS:          0  HIT:          0  MISS:          0
cpu0_STLB WRITEBACK ACCESS:          0  HIT:          0  MISS:          0
cpu0_STLB TRANSLATION ACCESS:          0  HIT:          0  MISS:          0
cpu0_STLB PREFETCH  REQUESTED:          0  ISSUED:          0  USEFUL:          0  USELESS:          0
cpu0_STLB AVERAGE MISS LATENCY: 111.73 cycles
cpu0_L1D TOTAL     ACCESS:   18927645  HIT:   17569237  MISS:    1358408
cpu0_L1D LOAD      ACCESS:   14882038  HIT:   13782982  MISS:    1099056
cpu0_L1D RFO       ACCESS:    4036062  HIT:    3777498  MISS:     258564
cpu0_L1D PREFETCH  ACCESS:          0  HIT:          0  MISS:          0
cpu0_L1D WRITEBACK ACCESS:          0  HIT:          0  MISS:          0
cpu0_L1D TRANSLATION ACCESS:       9545  HIT:       8757  MISS:        788
cpu0_L1D PREFETCH  REQUESTED:          0  ISSUED:          0  USEFUL:          0  USELESS:          0
cpu0_L1D AVERAGE MISS LATENCY: 211.23 cycles
cpu0_L2C TOTAL     ACCESS:    1836356  HIT:     802919  MISS:    1033437
cpu0_L2C LOAD      ACCESS:    1099773  HIT:     287151  MISS:     812622
cpu0_L2C RFO       ACCESS:     258560  HIT:      39542  MISS:     219018
cpu0_L2C PREFETCH  ACCESS:          0  HIT:          0  MISS:          0
cpu0_L2C WRITEBACK ACCESS:     477235  HIT:     475550  MISS:       1685
cpu0_L2C TRANSLATION ACCESS:        788  HIT:        676  MISS:        112
cpu0_L2C PREFETCH  REQUESTED:          0  ISSUED:          0  USEFUL:          0  USELESS:          0
cpu0_L2C AVERAGE MISS LATENCY: 263.418 cycles
LLC TOTAL     ACCESS:    1463808  HIT:     445443  MISS:    1018365
LLC LOAD      ACCESS:     812622  HIT:     180160  MISS:     632462
LLC RFO       ACCESS:     219018  HIT:      37299  MISS:     181719
LLC PREFETCH  ACCESS:          0  HIT:          0  MISS:          0
LLC WRITEBACK ACCESS:     432056  HIT:     227942  MISS:     204114
LLC TRANSLATION ACCESS:        112  HIT:         42  MISS:         70
LLC PREFETCH  REQUESTED:          0  ISSUED:          0  USEFUL:          0  USELESS:          0
LLC AVERAGE MISS LATENCY: 246.037 cycles
Insertion Distribution: 
	LOAD 40680 0 132197 628260 
	RFO 35228 0 65419 156178 
	PREF 0 0 0 0 
	WRITEBACK 0 0 0 265857 
	 2 0 63 32 
Total Prefetch Downgrades: 0

DRAM Statistics
 CHANNEL 0
 RQ ROW_BUFFER_HIT:     104354  ROW_BUFFER_MISS:     709363
 DBUS AVG_CONGESTED_CYCLE:    3.92664
 WQ ROW_BUFFER_HIT:      26627  ROW_BUFFER_MISS:     271304  FULL:      33861


CPU 0 Branch Prediction Accuracy: 97.4481% MPKI: 2.04611 Average ROB Occupancy at Mispredict: 259.773
Branch type MPKI
BRANCH_DIRECT_JUMP: 0.00028
BRANCH_INDIRECT: 0
BRANCH_CONDITIONAL: 2.0456
BRANCH_DIRECT_CALL: 0.00011
BRANCH_INDIRECT_CALL: 0
BRANCH_RETURN: 0.00012

