
*** ChampSim Multicore Out-of-Order Simulator ***

Warmup Instructions: 10000000
Simulation Instructions: 100000000
Number of CPUs: 1
Off-chip DRAM Size: 4 GiB Channels: 1 Width: 64-bit Data Rate: 3200 MT/s

VirtualMemory physical capacity: 8588881920 num_ppages: 2096895
VirtualMemory page size: 4096 log2_page_size: 12

CPU 0 runs /datasets/cs240c-wi22-a00-public/data/Assignment2/sphinx3_883B.trace.xz
CPU 0 Bimodal branch predictor
Basic BTB sets: 1024 ways: 8 indirect buffer size: 4096 RAS size: 64
Initialize SRRIP state
Heartbeat CPU 0 instructions: 10000004 cycles: 2628880 heartbeat IPC: 3.8039 cumulative IPC: 3.8039 (Simulation time: 0 hr 0 min 33 sec) 

Warmup complete CPU 0 instructions: 10000004 cycles: 2628880 (Simulation time: 0 hr 0 min 33 sec) 

Heartbeat CPU 0 instructions: 20000004 cycles: 15027982 heartbeat IPC: 0.80651 cumulative IPC: 0.80651 (Simulation time: 0 hr 1 min 38 sec) 
Heartbeat CPU 0 instructions: 30000001 cycles: 27699114 heartbeat IPC: 0.789195 cumulative IPC: 0.797759 (Simulation time: 0 hr 2 min 42 sec) 
Heartbeat CPU 0 instructions: 40000004 cycles: 39520656 heartbeat IPC: 0.845914 cumulative IPC: 0.813189 (Simulation time: 0 hr 3 min 45 sec) 
Heartbeat CPU 0 instructions: 50000001 cycles: 51039625 heartbeat IPC: 0.868133 cumulative IPC: 0.826263 (Simulation time: 0 hr 4 min 47 sec) 
Heartbeat CPU 0 instructions: 60000000 cycles: 61097792 heartbeat IPC: 0.994217 cumulative IPC: 0.855155 (Simulation time: 0 hr 5 min 47 sec) 
Heartbeat CPU 0 instructions: 70000002 cycles: 69891308 heartbeat IPC: 1.1372 cumulative IPC: 0.892028 (Simulation time: 0 hr 6 min 41 sec) 
Heartbeat CPU 0 instructions: 80000000 cycles: 79739802 heartbeat IPC: 1.01538 cumulative IPC: 0.907783 (Simulation time: 0 hr 7 min 39 sec) 
Heartbeat CPU 0 instructions: 90000002 cycles: 88093339 heartbeat IPC: 1.1971 cumulative IPC: 0.936062 (Simulation time: 0 hr 8 min 30 sec) 
Heartbeat CPU 0 instructions: 100000000 cycles: 95835053 heartbeat IPC: 1.2917 cumulative IPC: 0.965601 (Simulation time: 0 hr 9 min 20 sec) 
Heartbeat CPU 0 instructions: 110000003 cycles: 105505788 heartbeat IPC: 1.03405 cumulative IPC: 0.972035 (Simulation time: 0 hr 10 min 16 sec) 
Finished CPU 0 instructions: 100000004 cycles: 102876909 cumulative IPC: 0.972035 (Simulation time: 0 hr 10 min 16 sec) 

ChampSim completed all CPUs

Region of Interest Statistics

CPU 0 cumulative IPC: 0.972035 instructions: 100000004 cycles: 102876909
cpu0_DTLB TOTAL     ACCESS:   16887231  HIT:   16727237  MISS:     159994
cpu0_DTLB LOAD      ACCESS:   15543984  HIT:   15392257  MISS:     151727
cpu0_DTLB RFO       ACCESS:    1343247  HIT:    1334980  MISS:       8267
cpu0_DTLB PREFETCH  ACCESS:          0  HIT:          0  MISS:          0
cpu0_DTLB WRITEBACK ACCESS:          0  HIT:          0  MISS:          0
cpu0_DTLB TRANSLATION ACCESS:          0  HIT:          0  MISS:          0
cpu0_DTLB PREFETCH  REQUESTED:          0  ISSUED:          0  USEFUL:          0  USELESS:          0
cpu0_DTLB AVERAGE MISS LATENCY: 12.7664 cycles
cpu0_ITLB TOTAL     ACCESS:    9396889  HIT:    9396824  MISS:         65
cpu0_ITLB LOAD      ACCESS:    9396889  HIT:    9396824  MISS:         65
cpu0_ITLB RFO       ACCESS:          0  HIT:          0  MISS:          0
cpu0_ITLB PREFETCH  ACCESS:          0  HIT:          0  MISS:          0
cpu0_ITLB WRITEBACK ACCESS:          0  HIT:          0  MISS:          0
cpu0_ITLB TRANSLATION ACCESS:          0  HIT:          0  MISS:          0
cpu0_ITLB PREFETCH  REQUESTED:          0  ISSUED:          0  USEFUL:          0  USELESS:          0
cpu0_ITLB AVERAGE MISS LATENCY: 148.4 cycles
cpu0_L1I TOTAL     ACCESS:     192625  HIT:     191245  MISS:       1380
cpu0_L1I LOAD      ACCESS:     192625  HIT:     191245  MISS:       1380
cpu0_L1I RFO       ACCESS:          0  HIT:          0  MISS:          0
cpu0_L1I PREFETCH  ACCESS:          0  HIT:          0  MISS:          0
cpu0_L1I WRITEBACK ACCESS:          0  HIT:          0  MISS:          0
cpu0_L1I TRANSLATION ACCESS:          0  HIT:          0  MISS:          0
cpu0_L1I PREFETCH  REQUESTED:          0  ISSUED:          0  USEFUL:          0  USELESS:          0
cpu0_L1I AVERAGE MISS LATENCY: 202.801 cycles
cpu0_STLB TOTAL     ACCESS:     160059  HIT:      99164  MISS:      60895
cpu0_STLB LOAD      ACCESS:     151792  HIT:      92113  MISS:      59679
cpu0_STLB RFO       ACCESS:       8267  HIT:       7051  MISS:       1216
cpu0_STLB PREFETCH  ACCESS:          0  HIT:          0  MISS:          0
cpu0_STLB WRITEBACK ACCESS:          0  HIT:          0  MISS:          0
cpu0_STLB TRANSLATION ACCESS:          0  HIT:          0  MISS:          0
cpu0_STLB PREFETCH  REQUESTED:          0  ISSUED:          0  USEFUL:          0  USELESS:          0
cpu0_STLB AVERAGE MISS LATENCY: 9.91737 cycles
cpu0_L1D TOTAL     ACCESS:   12929223  HIT:   11179911  MISS:    1749312
cpu0_L1D LOAD      ACCESS:   10691538  HIT:    9057156  MISS:    1634382
cpu0_L1D RFO       ACCESS:    2179626  HIT:    2065490  MISS:     114136
cpu0_L1D PREFETCH  ACCESS:          0  HIT:          0  MISS:          0
cpu0_L1D WRITEBACK ACCESS:          0  HIT:          0  MISS:          0
cpu0_L1D TRANSLATION ACCESS:      58059  HIT:      57265  MISS:        794
cpu0_L1D PREFETCH  REQUESTED:          0  ISSUED:          0  USEFUL:          0  USELESS:          0
cpu0_L1D AVERAGE MISS LATENCY: 106.675 cycles
cpu0_L2C TOTAL     ACCESS:    1908284  HIT:     517707  MISS:    1390577
cpu0_L2C LOAD      ACCESS:    1635759  HIT:     346945  MISS:    1288814
cpu0_L2C RFO       ACCESS:     114132  HIT:      12987  MISS:     101145
cpu0_L2C PREFETCH  ACCESS:          0  HIT:          0  MISS:          0
cpu0_L2C WRITEBACK ACCESS:     157599  HIT:     157302  MISS:        297
cpu0_L2C TRANSLATION ACCESS:        794  HIT:        473  MISS:        321
cpu0_L2C PREFETCH  REQUESTED:          0  ISSUED:          0  USEFUL:          0  USELESS:          0
cpu0_L2C AVERAGE MISS LATENCY: 120.488 cycles
LLC TOTAL     ACCESS:    1524826  HIT:     790627  MISS:     734199
LLC LOAD      ACCESS:    1288814  HIT:     624130  MISS:     664684
LLC RFO       ACCESS:     101145  HIT:      67242  MISS:      33903
LLC PREFETCH  ACCESS:          0  HIT:          0  MISS:          0
LLC WRITEBACK ACCESS:     134546  HIT:      98941  MISS:      35605
LLC TRANSLATION ACCESS:        321  HIT:        314  MISS:          7
LLC PREFETCH  REQUESTED:          0  ISSUED:          0  USEFUL:          0  USELESS:          0
LLC AVERAGE MISS LATENCY: 188.407 cycles
Insertion Distribution: 
	LOAD 2614 0 113162 667889 
	RFO 109 0 7129 32339 
	PREF 0 0 0 0 
	WRITEBACK 0 0 0 36010 
	 0 0 20 2 
Total Prefetch Downgrades: 0

DRAM Statistics
 CHANNEL 0
 RQ ROW_BUFFER_HIT:      96649  ROW_BUFFER_MISS:     601835
 DBUS AVG_CONGESTED_CYCLE:    3.79244
 WQ ROW_BUFFER_HIT:      17696  ROW_BUFFER_MISS:      24938  FULL:      12456


CPU 0 Branch Prediction Accuracy: 91.645% MPKI: 7.87682 Average ROB Occupancy at Mispredict: 153.528
Branch type MPKI
BRANCH_DIRECT_JUMP: 0.0017
BRANCH_INDIRECT: 0.00111
BRANCH_CONDITIONAL: 7.87013
BRANCH_DIRECT_CALL: 0.00166
BRANCH_INDIRECT_CALL: 0.0005
BRANCH_RETURN: 0.00172

