
*** ChampSim Multicore Out-of-Order Simulator ***

Warmup Instructions: 10000000
Simulation Instructions: 100000000
Number of CPUs: 1
Off-chip DRAM Size: 4 GiB Channels: 1 Width: 64-bit Data Rate: 3200 MT/s

VirtualMemory physical capacity: 8588881920 num_ppages: 2096895
VirtualMemory page size: 4096 log2_page_size: 12

CPU 0 runs /datasets/cs240c-wi22-a00-public/data/Assignment2/calculix_3812B.trace.xz
CPU 0 Bimodal branch predictor
Basic BTB sets: 1024 ways: 8 indirect buffer size: 4096 RAS size: 64
Initialize SRRIP state
Heartbeat CPU 0 instructions: 10000000 cycles: 2819851 heartbeat IPC: 3.54629 cumulative IPC: 3.54629 (Simulation time: 0 hr 0 min 29 sec) 

Warmup complete CPU 0 instructions: 10000004 cycles: 2819852 (Simulation time: 0 hr 0 min 29 sec) 

Heartbeat CPU 0 instructions: 20000004 cycles: 6546598 heartbeat IPC: 2.68331 cumulative IPC: 2.68331 (Simulation time: 0 hr 0 min 58 sec) 
Heartbeat CPU 0 instructions: 30000001 cycles: 10291654 heartbeat IPC: 2.67019 cumulative IPC: 2.67673 (Simulation time: 0 hr 1 min 26 sec) 
Heartbeat CPU 0 instructions: 40000000 cycles: 13987184 heartbeat IPC: 2.70597 cumulative IPC: 2.68641 (Simulation time: 0 hr 2 min 15 sec) 
Heartbeat CPU 0 instructions: 50000001 cycles: 18163648 heartbeat IPC: 2.39437 cumulative IPC: 2.60692 (Simulation time: 0 hr 2 min 56 sec) 
Heartbeat CPU 0 instructions: 60000000 cycles: 21768681 heartbeat IPC: 2.7739 cumulative IPC: 2.63869 (Simulation time: 0 hr 3 min 25 sec) 
Heartbeat CPU 0 instructions: 70000000 cycles: 25665212 heartbeat IPC: 2.56639 cumulative IPC: 2.62635 (Simulation time: 0 hr 3 min 56 sec) 
Heartbeat CPU 0 instructions: 80000001 cycles: 29497019 heartbeat IPC: 2.60974 cumulative IPC: 2.62397 (Simulation time: 0 hr 4 min 34 sec) 
Heartbeat CPU 0 instructions: 90000004 cycles: 33247939 heartbeat IPC: 2.66601 cumulative IPC: 2.62915 (Simulation time: 0 hr 5 min 6 sec) 
Heartbeat CPU 0 instructions: 100000001 cycles: 36776337 heartbeat IPC: 2.83415 cumulative IPC: 2.65045 (Simulation time: 0 hr 5 min 30 sec) 
Heartbeat CPU 0 instructions: 110000002 cycles: 40561310 heartbeat IPC: 2.64203 cumulative IPC: 2.64961 (Simulation time: 0 hr 5 min 55 sec) 
Finished CPU 0 instructions: 100000003 cycles: 37741459 cumulative IPC: 2.64961 (Simulation time: 0 hr 5 min 55 sec) 

ChampSim completed all CPUs

Region of Interest Statistics

CPU 0 cumulative IPC: 2.64961 instructions: 100000003 cycles: 37741459
cpu0_DTLB TOTAL     ACCESS:   14463995  HIT:   14436723  MISS:      27272
cpu0_DTLB LOAD      ACCESS:   12805854  HIT:   12779677  MISS:      26177
cpu0_DTLB RFO       ACCESS:    1658141  HIT:    1657046  MISS:       1095
cpu0_DTLB PREFETCH  ACCESS:          0  HIT:          0  MISS:          0
cpu0_DTLB WRITEBACK ACCESS:          0  HIT:          0  MISS:          0
cpu0_DTLB TRANSLATION ACCESS:          0  HIT:          0  MISS:          0
cpu0_DTLB PREFETCH  REQUESTED:          0  ISSUED:          0  USEFUL:          0  USELESS:          0
cpu0_DTLB AVERAGE MISS LATENCY: 14.9477 cycles
cpu0_ITLB TOTAL     ACCESS:    5762865  HIT:    5762837  MISS:         28
cpu0_ITLB LOAD      ACCESS:    5762865  HIT:    5762837  MISS:         28
cpu0_ITLB RFO       ACCESS:          0  HIT:          0  MISS:          0
cpu0_ITLB PREFETCH  ACCESS:          0  HIT:          0  MISS:          0
cpu0_ITLB WRITEBACK ACCESS:          0  HIT:          0  MISS:          0
cpu0_ITLB TRANSLATION ACCESS:          0  HIT:          0  MISS:          0
cpu0_ITLB PREFETCH  REQUESTED:          0  ISSUED:          0  USEFUL:          0  USELESS:          0
cpu0_ITLB AVERAGE MISS LATENCY: 9 cycles
cpu0_L1I TOTAL     ACCESS:     869563  HIT:     868811  MISS:        752
cpu0_L1I LOAD      ACCESS:     869563  HIT:     868811  MISS:        752
cpu0_L1I RFO       ACCESS:          0  HIT:          0  MISS:          0
cpu0_L1I PREFETCH  ACCESS:          0  HIT:          0  MISS:          0
cpu0_L1I WRITEBACK ACCESS:          0  HIT:          0  MISS:          0
cpu0_L1I TRANSLATION ACCESS:          0  HIT:          0  MISS:          0
cpu0_L1I PREFETCH  REQUESTED:          0  ISSUED:          0  USEFUL:          0  USELESS:          0
cpu0_L1I AVERAGE MISS LATENCY: 82.3816 cycles
cpu0_STLB TOTAL     ACCESS:      27300  HIT:      26526  MISS:        774
cpu0_STLB LOAD      ACCESS:      26205  HIT:      25865  MISS:        340
cpu0_STLB RFO       ACCESS:       1095  HIT:        661  MISS:        434
cpu0_STLB PREFETCH  ACCESS:          0  HIT:          0  MISS:          0
cpu0_STLB WRITEBACK ACCESS:          0  HIT:          0  MISS:          0
cpu0_STLB TRANSLATION ACCESS:          0  HIT:          0  MISS:          0
cpu0_STLB PREFETCH  REQUESTED:          0  ISSUED:          0  USEFUL:          0  USELESS:          0
cpu0_STLB AVERAGE MISS LATENCY: 209.492 cycles
cpu0_L1D TOTAL     ACCESS:   16698775  HIT:   15371483  MISS:    1327292
cpu0_L1D LOAD      ACCESS:   11980403  HIT:   10705313  MISS:    1275090
cpu0_L1D RFO       ACCESS:    4717601  HIT:    4665446  MISS:      52155
cpu0_L1D PREFETCH  ACCESS:          0  HIT:          0  MISS:          0
cpu0_L1D WRITEBACK ACCESS:          0  HIT:          0  MISS:          0
cpu0_L1D TRANSLATION ACCESS:        771  HIT:        724  MISS:         47
cpu0_L1D PREFETCH  REQUESTED:          0  ISSUED:          0  USEFUL:          0  USELESS:          0
cpu0_L1D AVERAGE MISS LATENCY: 28.8568 cycles
cpu0_L2C TOTAL     ACCESS:    1837948  HIT:    1545994  MISS:     291954
cpu0_L2C LOAD      ACCESS:    1275831  HIT:    1023136  MISS:     252695
cpu0_L2C RFO       ACCESS:      52155  HIT:      13810  MISS:      38345
cpu0_L2C PREFETCH  ACCESS:          0  HIT:          0  MISS:          0
cpu0_L2C WRITEBACK ACCESS:     509915  HIT:     509017  MISS:        898
cpu0_L2C TRANSLATION ACCESS:         47  HIT:         31  MISS:         16
cpu0_L2C PREFETCH  REQUESTED:          0  ISSUED:          0  USEFUL:          0  USELESS:          0
cpu0_L2C AVERAGE MISS LATENCY: 80.6588 cycles
LLC TOTAL     ACCESS:     430998  HIT:     347715  MISS:      83283
LLC LOAD      ACCESS:     252695  HIT:     199818  MISS:      52877
LLC RFO       ACCESS:      38345  HIT:      10160  MISS:      28185
LLC PREFETCH  ACCESS:          0  HIT:          0  MISS:          0
LLC WRITEBACK ACCESS:     139942  HIT:     137724  MISS:       2218
LLC TRANSLATION ACCESS:         16  HIT:         13  MISS:          3
LLC PREFETCH  REQUESTED:          0  ISSUED:          0  USEFUL:          0  USELESS:          0
LLC AVERAGE MISS LATENCY: 209.363 cycles
Insertion Distribution: 
	LOAD 1294 0 41808 17212 
	RFO 13236 0 19688 1321 
	PREF 0 0 0 0 
	WRITEBACK 0 0 0 2218 
	 0 0 15 1 
Total Prefetch Downgrades: 0

DRAM Statistics
 CHANNEL 0
 RQ ROW_BUFFER_HIT:      48700  ROW_BUFFER_MISS:      32313
 DBUS AVG_CONGESTED_CYCLE:    3.95453
 WQ ROW_BUFFER_HIT:       2879  ROW_BUFFER_MISS:      16835  FULL:          0


CPU 0 Branch Prediction Accuracy: 96.6151% MPKI: 1.9742 Average ROB Occupancy at Mispredict: 163.832
Branch type MPKI
BRANCH_DIRECT_JUMP: 0.00017
BRANCH_INDIRECT: 0.00062
BRANCH_CONDITIONAL: 1.97308
BRANCH_DIRECT_CALL: 0.00017
BRANCH_INDIRECT_CALL: 0
BRANCH_RETURN: 0.00016

