
*** ChampSim Multicore Out-of-Order Simulator ***

Warmup Instructions: 10000000
Simulation Instructions: 100000000
Number of CPUs: 1
Off-chip DRAM Size: 4 GiB Channels: 1 Width: 64-bit Data Rate: 3200 MT/s

VirtualMemory physical capacity: 8588881920 num_ppages: 2096895
VirtualMemory page size: 4096 log2_page_size: 12

CPU 0 runs /datasets/cs240c-wi22-a00-public/data/Assignment2/leslie3d_1116B.trace.xz
CPU 0 Bimodal branch predictor
Basic BTB sets: 1024 ways: 8 indirect buffer size: 4096 RAS size: 64
Initialize SRRIP state
Heartbeat CPU 0 instructions: 10000000 cycles: 3692433 heartbeat IPC: 2.70824 cumulative IPC: 2.70824 (Simulation time: 0 hr 0 min 50 sec) 

Warmup complete CPU 0 instructions: 10000005 cycles: 3692434 (Simulation time: 0 hr 0 min 50 sec) 

Heartbeat CPU 0 instructions: 20000000 cycles: 14342378 heartbeat IPC: 0.938972 cumulative IPC: 0.938972 (Simulation time: 0 hr 2 min 29 sec) 
Heartbeat CPU 0 instructions: 30000000 cycles: 25954564 heartbeat IPC: 0.861164 cumulative IPC: 0.898386 (Simulation time: 0 hr 4 min 17 sec) 
Heartbeat CPU 0 instructions: 40000004 cycles: 39112147 heartbeat IPC: 0.760018 cumulative IPC: 0.846986 (Simulation time: 0 hr 6 min 17 sec) 
Heartbeat CPU 0 instructions: 50000000 cycles: 60003956 heartbeat IPC: 0.478656 cumulative IPC: 0.710334 (Simulation time: 0 hr 8 min 52 sec) 
Heartbeat CPU 0 instructions: 60000001 cycles: 112640930 heartbeat IPC: 0.189981 cumulative IPC: 0.458932 (Simulation time: 0 hr 13 min 48 sec) 
Heartbeat CPU 0 instructions: 70000000 cycles: 127615895 heartbeat IPC: 0.667781 cumulative IPC: 0.48417 (Simulation time: 0 hr 15 min 48 sec) 
Heartbeat CPU 0 instructions: 80000001 cycles: 141213721 heartbeat IPC: 0.735412 cumulative IPC: 0.509012 (Simulation time: 0 hr 17 min 47 sec) 
Heartbeat CPU 0 instructions: 90000004 cycles: 155055203 heartbeat IPC: 0.722466 cumulative IPC: 0.528532 (Simulation time: 0 hr 19 min 46 sec) 
Heartbeat CPU 0 instructions: 100000002 cycles: 168721254 heartbeat IPC: 0.73174 cumulative IPC: 0.545359 (Simulation time: 0 hr 21 min 42 sec) 
Heartbeat CPU 0 instructions: 110000000 cycles: 186342731 heartbeat IPC: 0.567489 cumulative IPC: 0.547494 (Simulation time: 0 hr 23 min 53 sec) 
Finished CPU 0 instructions: 100000000 cycles: 182650298 cumulative IPC: 0.547494 (Simulation time: 0 hr 23 min 53 sec) 

ChampSim completed all CPUs

Region of Interest Statistics

CPU 0 cumulative IPC: 0.547494 instructions: 100000000 cycles: 182650298
cpu0_DTLB TOTAL     ACCESS:   25782153  HIT:   25716439  MISS:      65714
cpu0_DTLB LOAD      ACCESS:   21143197  HIT:   21091526  MISS:      51671
cpu0_DTLB RFO       ACCESS:    4638956  HIT:    4624913  MISS:      14043
cpu0_DTLB PREFETCH  ACCESS:          0  HIT:          0  MISS:          0
cpu0_DTLB WRITEBACK ACCESS:          0  HIT:          0  MISS:          0
cpu0_DTLB TRANSLATION ACCESS:          0  HIT:          0  MISS:          0
cpu0_DTLB PREFETCH  REQUESTED:          0  ISSUED:          0  USEFUL:          0  USELESS:          0
cpu0_DTLB AVERAGE MISS LATENCY: 81.4989 cycles
cpu0_ITLB TOTAL     ACCESS:    2884226  HIT:    2884208  MISS:         18
cpu0_ITLB LOAD      ACCESS:    2884226  HIT:    2884208  MISS:         18
cpu0_ITLB RFO       ACCESS:          0  HIT:          0  MISS:          0
cpu0_ITLB PREFETCH  ACCESS:          0  HIT:          0  MISS:          0
cpu0_ITLB WRITEBACK ACCESS:          0  HIT:          0  MISS:          0
cpu0_ITLB TRANSLATION ACCESS:          0  HIT:          0  MISS:          0
cpu0_ITLB PREFETCH  REQUESTED:          0  ISSUED:          0  USEFUL:          0  USELESS:          0
cpu0_ITLB AVERAGE MISS LATENCY: 342.722 cycles
cpu0_L1I TOTAL     ACCESS:    1781830  HIT:    1781358  MISS:        472
cpu0_L1I LOAD      ACCESS:    1781830  HIT:    1781358  MISS:        472
cpu0_L1I RFO       ACCESS:          0  HIT:          0  MISS:          0
cpu0_L1I PREFETCH  ACCESS:          0  HIT:          0  MISS:          0
cpu0_L1I WRITEBACK ACCESS:          0  HIT:          0  MISS:          0
cpu0_L1I TRANSLATION ACCESS:          0  HIT:          0  MISS:          0
cpu0_L1I PREFETCH  REQUESTED:          0  ISSUED:          0  USEFUL:          0  USELESS:          0
cpu0_L1I AVERAGE MISS LATENCY: 364.932 cycles
cpu0_STLB TOTAL     ACCESS:      65732  HIT:      34108  MISS:      31624
cpu0_STLB LOAD      ACCESS:      51689  HIT:      28223  MISS:      23466
cpu0_STLB RFO       ACCESS:      14043  HIT:       5885  MISS:       8158
cpu0_STLB PREFETCH  ACCESS:          0  HIT:          0  MISS:          0
cpu0_STLB WRITEBACK ACCESS:          0  HIT:          0  MISS:          0
cpu0_STLB TRANSLATION ACCESS:          0  HIT:          0  MISS:          0
cpu0_STLB PREFETCH  REQUESTED:          0  ISSUED:          0  USEFUL:          0  USELESS:          0
cpu0_STLB AVERAGE MISS LATENCY: 150.827 cycles
cpu0_L1D TOTAL     ACCESS:   24398549  HIT:   20988437  MISS:    3410112
cpu0_L1D LOAD      ACCESS:   16248533  HIT:   13631369  MISS:    2617164
cpu0_L1D RFO       ACCESS:    8120644  HIT:    7331338  MISS:     789306
cpu0_L1D PREFETCH  ACCESS:          0  HIT:          0  MISS:          0
cpu0_L1D WRITEBACK ACCESS:          0  HIT:          0  MISS:          0
cpu0_L1D TRANSLATION ACCESS:      29372  HIT:      25730  MISS:       3642
cpu0_L1D PREFETCH  REQUESTED:          0  ISSUED:          0  USEFUL:          0  USELESS:          0
cpu0_L1D AVERAGE MISS LATENCY: 499.166 cycles
cpu0_L2C TOTAL     ACCESS:    4454975  HIT:    1718364  MISS:    2736611
cpu0_L2C LOAD      ACCESS:    2617587  HIT:     507736  MISS:    2109851
cpu0_L2C RFO       ACCESS:     789229  HIT:     162742  MISS:     626487
cpu0_L2C PREFETCH  ACCESS:          0  HIT:          0  MISS:          0
cpu0_L2C WRITEBACK ACCESS:    1044517  HIT:    1044342  MISS:        175
cpu0_L2C TRANSLATION ACCESS:       3642  HIT:       3544  MISS:         98
cpu0_L2C PREFETCH  REQUESTED:          0  ISSUED:          0  USEFUL:          0  USELESS:          0
cpu0_L2C AVERAGE MISS LATENCY: 608.339 cycles
LLC TOTAL     ACCESS:    3497156  HIT:     697325  MISS:    2799831
LLC LOAD      ACCESS:    2109851  HIT:     412601  MISS:    1697250
LLC RFO       ACCESS:     626487  HIT:     120719  MISS:     505768
LLC PREFETCH  ACCESS:          0  HIT:          0  MISS:          0
LLC WRITEBACK ACCESS:     760720  HIT:     163959  MISS:     596761
LLC TRANSLATION ACCESS:         98  HIT:         46  MISS:         52
LLC PREFETCH  REQUESTED:          0  ISSUED:          0  USEFUL:          0  USELESS:          0
LLC AVERAGE MISS LATENCY: 574.042 cycles
Insertion Distribution: 
	LOAD 30395 0 390093 1390431 
	RFO 597 0 34827 496746 
	PREF 0 0 0 0 
	WRITEBACK 0 0 0 616323 
	 0 0 38 29 
Total Prefetch Downgrades: 0

DRAM Statistics
 CHANNEL 0
 RQ ROW_BUFFER_HIT:     221719  ROW_BUFFER_MISS:    1981212
 DBUS AVG_CONGESTED_CYCLE:    3.95725
 WQ ROW_BUFFER_HIT:      62080  ROW_BUFFER_MISS:     586932  FULL:      32624


CPU 0 Branch Prediction Accuracy: 96.8713% MPKI: 1.55303 Average ROB Occupancy at Mispredict: 298.967
Branch type MPKI
BRANCH_DIRECT_JUMP: 0.00018
BRANCH_INDIRECT: 0
BRANCH_CONDITIONAL: 1.55065
BRANCH_DIRECT_CALL: 0.00113
BRANCH_INDIRECT_CALL: 0
BRANCH_RETURN: 0.00107

