
*** ChampSim Multicore Out-of-Order Simulator ***

Warmup Instructions: 10000000
Simulation Instructions: 100000000
Number of CPUs: 1
Off-chip DRAM Size: 4 GiB Channels: 1 Width: 64-bit Data Rate: 3200 MT/s

VirtualMemory physical capacity: 8588881920 num_ppages: 2096895
VirtualMemory page size: 4096 log2_page_size: 12

CPU 0 runs /datasets/cs240c-wi22-a00-public/data/Assignment2/omnetpp_340B.trace.xz
CPU 0 Bimodal branch predictor
Basic BTB sets: 1024 ways: 8 indirect buffer size: 4096 RAS size: 64
Initialize SRRIP state
Heartbeat CPU 0 instructions: 10000002 cycles: 2500207 heartbeat IPC: 3.99967 cumulative IPC: 3.99967 (Simulation time: 0 hr 0 min 39 sec) 

Warmup complete CPU 0 instructions: 10000002 cycles: 2500207 (Simulation time: 0 hr 0 min 39 sec) 

Heartbeat CPU 0 instructions: 20000000 cycles: 27158196 heartbeat IPC: 0.405548 cumulative IPC: 0.405548 (Simulation time: 0 hr 2 min 6 sec) 
Heartbeat CPU 0 instructions: 30000002 cycles: 52240135 heartbeat IPC: 0.398693 cumulative IPC: 0.402091 (Simulation time: 0 hr 3 min 33 sec) 
Heartbeat CPU 0 instructions: 40000000 cycles: 77022478 heartbeat IPC: 0.403513 cumulative IPC: 0.402564 (Simulation time: 0 hr 4 min 58 sec) 
Heartbeat CPU 0 instructions: 50000002 cycles: 102048540 heartbeat IPC: 0.399584 cumulative IPC: 0.401815 (Simulation time: 0 hr 6 min 21 sec) 
Heartbeat CPU 0 instructions: 60000001 cycles: 128131681 heartbeat IPC: 0.383389 cumulative IPC: 0.397989 (Simulation time: 0 hr 7 min 53 sec) 
Heartbeat CPU 0 instructions: 70000003 cycles: 153957753 heartbeat IPC: 0.387206 cumulative IPC: 0.396151 (Simulation time: 0 hr 9 min 16 sec) 
Heartbeat CPU 0 instructions: 80000003 cycles: 179766249 heartbeat IPC: 0.387469 cumulative IPC: 0.394887 (Simulation time: 0 hr 10 min 47 sec) 
Heartbeat CPU 0 instructions: 90000000 cycles: 205954375 heartbeat IPC: 0.381852 cumulative IPC: 0.393209 (Simulation time: 0 hr 12 min 13 sec) 
Heartbeat CPU 0 instructions: 100000000 cycles: 231855272 heartbeat IPC: 0.386087 cumulative IPC: 0.392405 (Simulation time: 0 hr 13 min 45 sec) 
Heartbeat CPU 0 instructions: 110000000 cycles: 256661718 heartbeat IPC: 0.403121 cumulative IPC: 0.393451 (Simulation time: 0 hr 15 min 13 sec) 
Finished CPU 0 instructions: 100000000 cycles: 254161513 cumulative IPC: 0.393451 (Simulation time: 0 hr 15 min 13 sec) 

ChampSim completed all CPUs

Region of Interest Statistics

CPU 0 cumulative IPC: 0.393451 instructions: 100000000 cycles: 254161513
cpu0_DTLB TOTAL     ACCESS:   23850518  HIT:   21953445  MISS:    1897073
cpu0_DTLB LOAD      ACCESS:   13883996  HIT:   12302891  MISS:    1581105
cpu0_DTLB RFO       ACCESS:    9966522  HIT:    9650554  MISS:     315968
cpu0_DTLB PREFETCH  ACCESS:          0  HIT:          0  MISS:          0
cpu0_DTLB WRITEBACK ACCESS:          0  HIT:          0  MISS:          0
cpu0_DTLB TRANSLATION ACCESS:          0  HIT:          0  MISS:          0
cpu0_DTLB PREFETCH  REQUESTED:          0  ISSUED:          0  USEFUL:          0  USELESS:          0
cpu0_DTLB AVERAGE MISS LATENCY: 13.1241 cycles
cpu0_ITLB TOTAL     ACCESS:   11128475  HIT:   11093108  MISS:      35367
cpu0_ITLB LOAD      ACCESS:   11128475  HIT:   11093108  MISS:      35367
cpu0_ITLB RFO       ACCESS:          0  HIT:          0  MISS:          0
cpu0_ITLB PREFETCH  ACCESS:          0  HIT:          0  MISS:          0
cpu0_ITLB WRITEBACK ACCESS:          0  HIT:          0  MISS:          0
cpu0_ITLB TRANSLATION ACCESS:          0  HIT:          0  MISS:          0
cpu0_ITLB PREFETCH  REQUESTED:          0  ISSUED:          0  USEFUL:          0  USELESS:          0
cpu0_ITLB AVERAGE MISS LATENCY: 9.25733 cycles
cpu0_L1I TOTAL     ACCESS:    8347281  HIT:    8340927  MISS:       6354
cpu0_L1I LOAD      ACCESS:    8347281  HIT:    8340927  MISS:       6354
cpu0_L1I RFO       ACCESS:          0  HIT:          0  MISS:          0
cpu0_L1I PREFETCH  ACCESS:          0  HIT:          0  MISS:          0
cpu0_L1I WRITEBACK ACCESS:          0  HIT:          0  MISS:          0
cpu0_L1I TRANSLATION ACCESS:          0  HIT:          0  MISS:          0
cpu0_L1I PREFETCH  REQUESTED:          0  ISSUED:          0  USEFUL:          0  USELESS:          0
cpu0_L1I AVERAGE MISS LATENCY: 56.7548 cycles
cpu0_STLB TOTAL     ACCESS:    1932440  HIT:    1457247  MISS:     475193
cpu0_STLB LOAD      ACCESS:    1616472  HIT:    1262561  MISS:     353911
cpu0_STLB RFO       ACCESS:     315968  HIT:     194686  MISS:     121282
cpu0_STLB PREFETCH  ACCESS:          0  HIT:          0  MISS:          0
cpu0_STLB WRITEBACK ACCESS:          0  HIT:          0  MISS:          0
cpu0_STLB TRANSLATION ACCESS:          0  HIT:          0  MISS:          0
cpu0_STLB PREFETCH  REQUESTED:          0  ISSUED:          0  USEFUL:          0  USELESS:          0
cpu0_STLB AVERAGE MISS LATENCY: 16.0126 cycles
cpu0_L1D TOTAL     ACCESS:   31466554  HIT:   28968648  MISS:    2497906
cpu0_L1D LOAD      ACCESS:   15711049  HIT:   13528273  MISS:    2182776
cpu0_L1D RFO       ACCESS:   15315076  HIT:   15004449  MISS:     310627
cpu0_L1D PREFETCH  ACCESS:          0  HIT:          0  MISS:          0
cpu0_L1D WRITEBACK ACCESS:          0  HIT:          0  MISS:          0
cpu0_L1D TRANSLATION ACCESS:     440429  HIT:     435926  MISS:       4503
cpu0_L1D PREFETCH  REQUESTED:          0  ISSUED:          0  USEFUL:          0  USELESS:          0
cpu0_L1D AVERAGE MISS LATENCY: 142.947 cycles
cpu0_L2C TOTAL     ACCESS:    3581361  HIT:    1431362  MISS:    2149999
cpu0_L2C LOAD      ACCESS:    2189093  HIT:     330875  MISS:    1858218
cpu0_L2C RFO       ACCESS:     310627  HIT:      22219  MISS:     288408
cpu0_L2C PREFETCH  ACCESS:          0  HIT:          0  MISS:          0
cpu0_L2C WRITEBACK ACCESS:    1077138  HIT:    1074864  MISS:       2274
cpu0_L2C TRANSLATION ACCESS:       4503  HIT:       3404  MISS:       1099
cpu0_L2C PREFETCH  REQUESTED:          0  ISSUED:          0  USEFUL:          0  USELESS:          0
cpu0_L2C AVERAGE MISS LATENCY: 153.275 cycles
LLC TOTAL     ACCESS:    3079071  HIT:    1072206  MISS:    2006865
LLC LOAD      ACCESS:    1858217  HIT:     443710  MISS:    1414507
LLC RFO       ACCESS:     288408  HIT:      63593  MISS:     224815
LLC PREFETCH  ACCESS:          0  HIT:          0  MISS:          0
LLC WRITEBACK ACCESS:     931347  HIT:     563865  MISS:     367482
LLC TRANSLATION ACCESS:       1099  HIT:       1038  MISS:         61
LLC PREFETCH  REQUESTED:          0  ISSUED:          0  USEFUL:          0  USELESS:          0
LLC AVERAGE MISS LATENCY: 141.733 cycles
Insertion Distribution: 
	LOAD 156220 0 218903 1193760 
	RFO 57549 0 93581 96121 
	PREF 0 0 0 0 
	WRITEBACK 0 0 0 398300 
	 12 0 48 26 
Total Prefetch Downgrades: 0

DRAM Statistics
 CHANNEL 0
 RQ ROW_BUFFER_HIT:      93527  ROW_BUFFER_MISS:    1545756
 DBUS AVG_CONGESTED_CYCLE:    3.91832
 WQ ROW_BUFFER_HIT:     170350  ROW_BUFFER_MISS:     497203  FULL:          0


CPU 0 Branch Prediction Accuracy: 94.4212% MPKI: 13.4017 Average ROB Occupancy at Mispredict: 51.8706
Branch type MPKI
BRANCH_DIRECT_JUMP: 0.00017
BRANCH_INDIRECT: 0.04543
BRANCH_CONDITIONAL: 13.2857
BRANCH_DIRECT_CALL: 8e-05
BRANCH_INDIRECT_CALL: 0.04734
BRANCH_RETURN: 0.02301

