
*** ChampSim Multicore Out-of-Order Simulator ***

Warmup Instructions: 10000000
Simulation Instructions: 100000000
Number of CPUs: 1
Off-chip DRAM Size: 4 GiB Channels: 1 Width: 64-bit Data Rate: 3200 MT/s

VirtualMemory physical capacity: 8588881920 num_ppages: 2096895
VirtualMemory page size: 4096 log2_page_size: 12

CPU 0 runs /datasets/cs240c-wi22-a00-public/data/Assignment2/cactusADM_734B.trace.xz
CPU 0 Bimodal branch predictor
Basic BTB sets: 1024 ways: 8 indirect buffer size: 4096 RAS size: 64
Initialize SRRIP state
Heartbeat CPU 0 instructions: 10000002 cycles: 3647078 heartbeat IPC: 2.74192 cumulative IPC: 2.74192 (Simulation time: 0 hr 1 min 0 sec) 

Warmup complete CPU 0 instructions: 10000002 cycles: 3647078 (Simulation time: 0 hr 1 min 0 sec) 

Heartbeat CPU 0 instructions: 20000004 cycles: 13445758 heartbeat IPC: 1.02055 cumulative IPC: 1.02055 (Simulation time: 0 hr 2 min 50 sec) 
Heartbeat CPU 0 instructions: 30000000 cycles: 22600479 heartbeat IPC: 1.09233 cumulative IPC: 1.05522 (Simulation time: 0 hr 4 min 35 sec) 
Heartbeat CPU 0 instructions: 40000004 cycles: 32392323 heartbeat IPC: 1.02126 cumulative IPC: 1.04365 (Simulation time: 0 hr 6 min 23 sec) 
Heartbeat CPU 0 instructions: 50000001 cycles: 41396598 heartbeat IPC: 1.11058 cumulative IPC: 1.05962 (Simulation time: 0 hr 8 min 4 sec) 
Heartbeat CPU 0 instructions: 60000002 cycles: 47587616 heartbeat IPC: 1.61524 cumulative IPC: 1.1379 (Simulation time: 0 hr 9 min 30 sec) 
Heartbeat CPU 0 instructions: 70000003 cycles: 57055704 heartbeat IPC: 1.05618 cumulative IPC: 1.12341 (Simulation time: 0 hr 11 min 13 sec) 
Heartbeat CPU 0 instructions: 80000004 cycles: 65777585 heartbeat IPC: 1.14654 cumulative IPC: 1.12666 (Simulation time: 0 hr 12 min 52 sec) 
Heartbeat CPU 0 instructions: 90000000 cycles: 75088018 heartbeat IPC: 1.07406 cumulative IPC: 1.11981 (Simulation time: 0 hr 14 min 35 sec) 
Heartbeat CPU 0 instructions: 100000004 cycles: 81506105 heartbeat IPC: 1.5581 cumulative IPC: 1.15594 (Simulation time: 0 hr 16 min 3 sec) 
Heartbeat CPU 0 instructions: 110000001 cycles: 90024585 heartbeat IPC: 1.17392 cumulative IPC: 1.15771 (Simulation time: 0 hr 17 min 41 sec) 
Finished CPU 0 instructions: 100000004 cycles: 86377508 cumulative IPC: 1.15771 (Simulation time: 0 hr 17 min 41 sec) 

ChampSim completed all CPUs

Region of Interest Statistics

CPU 0 cumulative IPC: 1.15771 instructions: 100000004 cycles: 86377508
cpu0_DTLB TOTAL     ACCESS:   21673306  HIT:   19827213  MISS:    1846093
cpu0_DTLB LOAD      ACCESS:   17800066  HIT:   16542239  MISS:    1257827
cpu0_DTLB RFO       ACCESS:    3873240  HIT:    3284974  MISS:     588266
cpu0_DTLB PREFETCH  ACCESS:          0  HIT:          0  MISS:          0
cpu0_DTLB WRITEBACK ACCESS:          0  HIT:          0  MISS:          0
cpu0_DTLB TRANSLATION ACCESS:          0  HIT:          0  MISS:          0
cpu0_DTLB PREFETCH  REQUESTED:          0  ISSUED:          0  USEFUL:          0  USELESS:          0
cpu0_DTLB AVERAGE MISS LATENCY: 17.966 cycles
cpu0_ITLB TOTAL     ACCESS:    1528010  HIT:    1528010  MISS:          0
cpu0_ITLB LOAD      ACCESS:    1528010  HIT:    1528010  MISS:          0
cpu0_ITLB RFO       ACCESS:          0  HIT:          0  MISS:          0
cpu0_ITLB PREFETCH  ACCESS:          0  HIT:          0  MISS:          0
cpu0_ITLB WRITEBACK ACCESS:          0  HIT:          0  MISS:          0
cpu0_ITLB TRANSLATION ACCESS:          0  HIT:          0  MISS:          0
cpu0_ITLB PREFETCH  REQUESTED:          0  ISSUED:          0  USEFUL:          0  USELESS:          0
cpu0_ITLB AVERAGE MISS LATENCY: -nan cycles
cpu0_L1I TOTAL     ACCESS:    7866620  HIT:    7866617  MISS:          3
cpu0_L1I LOAD      ACCESS:    7866620  HIT:    7866617  MISS:          3
cpu0_L1I RFO       ACCESS:          0  HIT:          0  MISS:          0
cpu0_L1I PREFETCH  ACCESS:          0  HIT:          0  MISS:          0
cpu0_L1I WRITEBACK ACCESS:          0  HIT:          0  MISS:          0
cpu0_L1I TRANSLATION ACCESS:          0  HIT:          0  MISS:          0
cpu0_L1I PREFETCH  REQUESTED:          0  ISSUED:          0  USEFUL:          0  USELESS:          0
cpu0_L1I AVERAGE MISS LATENCY: 894.333 cycles
cpu0_STLB TOTAL     ACCESS:    1846093  HIT:     893125  MISS:     952968
cpu0_STLB LOAD      ACCESS:    1257827  HIT:     641885  MISS:     615942
cpu0_STLB RFO       ACCESS:     588266  HIT:     251240  MISS:     337026
cpu0_STLB PREFETCH  ACCESS:          0  HIT:          0  MISS:          0
cpu0_STLB WRITEBACK ACCESS:          0  HIT:          0  MISS:          0
cpu0_STLB TRANSLATION ACCESS:          0  HIT:          0  MISS:          0
cpu0_STLB PREFETCH  REQUESTED:          0  ISSUED:          0  USEFUL:          0  USELESS:          0
cpu0_STLB AVERAGE MISS LATENCY: 17.2455 cycles
cpu0_L1D TOTAL     ACCESS:   37586381  HIT:   36266167  MISS:    1320214
cpu0_L1D LOAD      ACCESS:   25675360  HIT:   24624658  MISS:    1050702
cpu0_L1D RFO       ACCESS:   10959022  HIT:   10694874  MISS:     264148
cpu0_L1D PREFETCH  ACCESS:          0  HIT:          0  MISS:          0
cpu0_L1D WRITEBACK ACCESS:          0  HIT:          0  MISS:          0
cpu0_L1D TRANSLATION ACCESS:     951999  HIT:     946635  MISS:       5364
cpu0_L1D PREFETCH  REQUESTED:          0  ISSUED:          0  USEFUL:          0  USELESS:          0
cpu0_L1D AVERAGE MISS LATENCY: 308.414 cycles
cpu0_L2C TOTAL     ACCESS:    1588173  HIT:     691769  MISS:     896404
cpu0_L2C LOAD      ACCESS:    1050705  HIT:     418895  MISS:     631810
cpu0_L2C RFO       ACCESS:     264148  HIT:          0  MISS:     264148
cpu0_L2C PREFETCH  ACCESS:          0  HIT:          0  MISS:          0
cpu0_L2C WRITEBACK ACCESS:     267956  HIT:     267758  MISS:        198
cpu0_L2C TRANSLATION ACCESS:       5364  HIT:       5116  MISS:        248
cpu0_L2C PREFETCH  REQUESTED:          0  ISSUED:          0  USEFUL:          0  USELESS:          0
cpu0_L2C AVERAGE MISS LATENCY: 438.011 cycles
LLC TOTAL     ACCESS:    1162864  HIT:     331337  MISS:     831527
LLC LOAD      ACCESS:     631810  HIT:     152022  MISS:     479788
LLC RFO       ACCESS:     264148  HIT:      73624  MISS:     190524
LLC PREFETCH  ACCESS:          0  HIT:          0  MISS:          0
LLC WRITEBACK ACCESS:     266658  HIT:     105685  MISS:     160973
LLC TRANSLATION ACCESS:        248  HIT:          6  MISS:        242
LLC PREFETCH  REQUESTED:          0  ISSUED:          0  USEFUL:          0  USELESS:          0
LLC AVERAGE MISS LATENCY: 449.551 cycles
Insertion Distribution: 
	LOAD 72983 0 0 0 0 0 0 0 0 0 0 0 0 0 62015 395978 
	RFO 14386 0 0 0 0 0 0 0 0 0 0 0 0 0 21017 167614 
	PREF 0 0 0 0 0 0 0 0 0 0 0 0 0 0 0 0 
	WRITEBACK 0 0 0 0 0 0 0 0 0 0 0 0 0 0 0 163750 
	 1 0 0 0 0 0 0 0 0 0 0 0 0 0 52 231 
Total Prefetch Downgrades: 0

DRAM Statistics
 CHANNEL 0
 RQ ROW_BUFFER_HIT:       6578  ROW_BUFFER_MISS:     663948
 DBUS AVG_CONGESTED_CYCLE:    3.97862
 WQ ROW_BUFFER_HIT:      18186  ROW_BUFFER_MISS:     209670  FULL:        736


CPU 0 Branch Prediction Accuracy: 97.7528% MPKI: 0.04677 Average ROB Occupancy at Mispredict: 283.827
Branch type MPKI
BRANCH_DIRECT_JUMP: 0
BRANCH_INDIRECT: 0
BRANCH_CONDITIONAL: 0.04677
BRANCH_DIRECT_CALL: 0
BRANCH_INDIRECT_CALL: 0
BRANCH_RETURN: 0

