
*** ChampSim Multicore Out-of-Order Simulator ***

Warmup Instructions: 10000000
Simulation Instructions: 100000000
Number of CPUs: 1
Off-chip DRAM Size: 4 GiB Channels: 1 Width: 64-bit Data Rate: 3200 MT/s

VirtualMemory physical capacity: 8588881920 num_ppages: 2096895
VirtualMemory page size: 4096 log2_page_size: 12

CPU 0 runs /datasets/cs240c-wi22-a00-public/data/Assignment2/omnetpp_340B.trace.xz
CPU 0 Bimodal branch predictor
Basic BTB sets: 1024 ways: 8 indirect buffer size: 4096 RAS size: 64
Initialize SRRIP state
Heartbeat CPU 0 instructions: 10000002 cycles: 2500207 heartbeat IPC: 3.99967 cumulative IPC: 3.99967 (Simulation time: 0 hr 0 min 30 sec) 

Warmup complete CPU 0 instructions: 10000002 cycles: 2500207 (Simulation time: 0 hr 0 min 30 sec) 

Heartbeat CPU 0 instructions: 20000000 cycles: 27183098 heartbeat IPC: 0.405139 cumulative IPC: 0.405139 (Simulation time: 0 hr 1 min 35 sec) 
Heartbeat CPU 0 instructions: 30000002 cycles: 52292179 heartbeat IPC: 0.398262 cumulative IPC: 0.401671 (Simulation time: 0 hr 2 min 47 sec) 
Heartbeat CPU 0 instructions: 40000000 cycles: 76986486 heartbeat IPC: 0.404952 cumulative IPC: 0.402759 (Simulation time: 0 hr 3 min 59 sec) 
Heartbeat CPU 0 instructions: 50000002 cycles: 102496684 heartbeat IPC: 0.392 cumulative IPC: 0.400014 (Simulation time: 0 hr 5 min 5 sec) 
Heartbeat CPU 0 instructions: 60000001 cycles: 128864280 heartbeat IPC: 0.379253 cumulative IPC: 0.395682 (Simulation time: 0 hr 6 min 17 sec) 
Heartbeat CPU 0 instructions: 70000003 cycles: 154783243 heartbeat IPC: 0.385818 cumulative IPC: 0.394003 (Simulation time: 0 hr 7 min 21 sec) 
Heartbeat CPU 0 instructions: 80000003 cycles: 181062404 heartbeat IPC: 0.38053 cumulative IPC: 0.39202 (Simulation time: 0 hr 8 min 35 sec) 
Heartbeat CPU 0 instructions: 90000000 cycles: 207557149 heartbeat IPC: 0.377433 cumulative IPC: 0.390136 (Simulation time: 0 hr 9 min 43 sec) 
Heartbeat CPU 0 instructions: 100000002 cycles: 233555640 heartbeat IPC: 0.384638 cumulative IPC: 0.389517 (Simulation time: 0 hr 10 min 57 sec) 
Heartbeat CPU 0 instructions: 110000000 cycles: 258259609 heartbeat IPC: 0.404793 cumulative IPC: 0.390992 (Simulation time: 0 hr 12 min 7 sec) 
Finished CPU 0 instructions: 100000000 cycles: 255759404 cumulative IPC: 0.390992 (Simulation time: 0 hr 12 min 7 sec) 

ChampSim completed all CPUs

Region of Interest Statistics

CPU 0 cumulative IPC: 0.390992 instructions: 100000000 cycles: 255759404
cpu0_DTLB TOTAL     ACCESS:   23846553  HIT:   21949437  MISS:    1897116
cpu0_DTLB LOAD      ACCESS:   13878047  HIT:   12296870  MISS:    1581177
cpu0_DTLB RFO       ACCESS:    9968506  HIT:    9652567  MISS:     315939
cpu0_DTLB PREFETCH  ACCESS:          0  HIT:          0  MISS:          0
cpu0_DTLB WRITEBACK ACCESS:          0  HIT:          0  MISS:          0
cpu0_DTLB TRANSLATION ACCESS:          0  HIT:          0  MISS:          0
cpu0_DTLB PREFETCH  REQUESTED:          0  ISSUED:          0  USEFUL:          0  USELESS:          0
cpu0_DTLB AVERAGE MISS LATENCY: 13.1266 cycles
cpu0_ITLB TOTAL     ACCESS:   11128489  HIT:   11093122  MISS:      35367
cpu0_ITLB LOAD      ACCESS:   11128489  HIT:   11093122  MISS:      35367
cpu0_ITLB RFO       ACCESS:          0  HIT:          0  MISS:          0
cpu0_ITLB PREFETCH  ACCESS:          0  HIT:          0  MISS:          0
cpu0_ITLB WRITEBACK ACCESS:          0  HIT:          0  MISS:          0
cpu0_ITLB TRANSLATION ACCESS:          0  HIT:          0  MISS:          0
cpu0_ITLB PREFETCH  REQUESTED:          0  ISSUED:          0  USEFUL:          0  USELESS:          0
cpu0_ITLB AVERAGE MISS LATENCY: 9.25702 cycles
cpu0_L1I TOTAL     ACCESS:    8347097  HIT:    8340747  MISS:       6350
cpu0_L1I LOAD      ACCESS:    8347097  HIT:    8340747  MISS:       6350
cpu0_L1I RFO       ACCESS:          0  HIT:          0  MISS:          0
cpu0_L1I PREFETCH  ACCESS:          0  HIT:          0  MISS:          0
cpu0_L1I WRITEBACK ACCESS:          0  HIT:          0  MISS:          0
cpu0_L1I TRANSLATION ACCESS:          0  HIT:          0  MISS:          0
cpu0_L1I PREFETCH  REQUESTED:          0  ISSUED:          0  USEFUL:          0  USELESS:          0
cpu0_L1I AVERAGE MISS LATENCY: 55.7126 cycles
cpu0_STLB TOTAL     ACCESS:    1932483  HIT:    1457289  MISS:     475194
cpu0_STLB LOAD      ACCESS:    1616544  HIT:    1262636  MISS:     353908
cpu0_STLB RFO       ACCESS:     315939  HIT:     194653  MISS:     121286
cpu0_STLB PREFETCH  ACCESS:          0  HIT:          0  MISS:          0
cpu0_STLB WRITEBACK ACCESS:          0  HIT:          0  MISS:          0
cpu0_STLB TRANSLATION ACCESS:          0  HIT:          0  MISS:          0
cpu0_STLB PREFETCH  REQUESTED:          0  ISSUED:          0  USEFUL:          0  USELESS:          0
cpu0_STLB AVERAGE MISS LATENCY: 16.0232 cycles
cpu0_L1D TOTAL     ACCESS:   31449201  HIT:   28951297  MISS:    2497904
cpu0_L1D LOAD      ACCESS:   15710595  HIT:   13527780  MISS:    2182815
cpu0_L1D RFO       ACCESS:   15298187  HIT:   14987603  MISS:     310584
cpu0_L1D PREFETCH  ACCESS:          0  HIT:          0  MISS:          0
cpu0_L1D WRITEBACK ACCESS:          0  HIT:          0  MISS:          0
cpu0_L1D TRANSLATION ACCESS:     440419  HIT:     435914  MISS:       4505
cpu0_L1D PREFETCH  REQUESTED:          0  ISSUED:          0  USEFUL:          0  USELESS:          0
cpu0_L1D AVERAGE MISS LATENCY: 143.73 cycles
cpu0_L2C TOTAL     ACCESS:    3581378  HIT:    1431394  MISS:    2149984
cpu0_L2C LOAD      ACCESS:    2189128  HIT:     330915  MISS:    1858213
cpu0_L2C RFO       ACCESS:     310584  HIT:      22180  MISS:     288404
cpu0_L2C PREFETCH  ACCESS:          0  HIT:          0  MISS:          0
cpu0_L2C WRITEBACK ACCESS:    1077161  HIT:    1074892  MISS:       2269
cpu0_L2C TRANSLATION ACCESS:       4505  HIT:       3407  MISS:       1098
cpu0_L2C PREFETCH  REQUESTED:          0  ISSUED:          0  USEFUL:          0  USELESS:          0
cpu0_L2C AVERAGE MISS LATENCY: 154.183 cycles
LLC TOTAL     ACCESS:    3079073  HIT:    1010239  MISS:    2068834
LLC LOAD      ACCESS:    1858212  HIT:     429446  MISS:    1428766
LLC RFO       ACCESS:     288404  HIT:      65141  MISS:     223263
LLC PREFETCH  ACCESS:          0  HIT:          0  MISS:          0
LLC WRITEBACK ACCESS:     931359  HIT:     514642  MISS:     416717
LLC TRANSLATION ACCESS:       1098  HIT:       1010  MISS:         88
LLC PREFETCH  REQUESTED:          0  ISSUED:          0  USEFUL:          0  USELESS:          0
LLC AVERAGE MISS LATENCY: 138.43 cycles
Insertion Distribution: 
	LOAD 123071 0 214647 1245538 
	RFO 49154 0 77500 119489 
	PREF 0 0 0 0 
	WRITEBACK 0 0 0 449217 
	 8 0 48 57 
Total Prefetch Downgrades: 0

DRAM Statistics
 CHANNEL 0
 RQ ROW_BUFFER_HIT:      96956  ROW_BUFFER_MISS:    1555051
 DBUS AVG_CONGESTED_CYCLE:    3.91967
 WQ ROW_BUFFER_HIT:     172037  ROW_BUFFER_MISS:     497972  FULL:          0


CPU 0 Branch Prediction Accuracy: 94.4212% MPKI: 13.4017 Average ROB Occupancy at Mispredict: 52.0743
Branch type MPKI
BRANCH_DIRECT_JUMP: 0.00017
BRANCH_INDIRECT: 0.04543
BRANCH_CONDITIONAL: 13.2857
BRANCH_DIRECT_CALL: 8e-05
BRANCH_INDIRECT_CALL: 0.04734
BRANCH_RETURN: 0.02301

