
*** ChampSim Multicore Out-of-Order Simulator ***

Warmup Instructions: 10000000
Simulation Instructions: 100000000
Number of CPUs: 1
Off-chip DRAM Size: 4 GiB Channels: 1 Width: 64-bit Data Rate: 3200 MT/s

VirtualMemory physical capacity: 8588881920 num_ppages: 2096895
VirtualMemory page size: 4096 log2_page_size: 12

CPU 0 runs /datasets/cs240c-wi22-a00-public/data/Assignment2/gcc_13B.trace.xz
CPU 0 Bimodal branch predictor
Basic BTB sets: 1024 ways: 8 indirect buffer size: 4096 RAS size: 64
Initialize SRRIP state
Heartbeat CPU 0 instructions: 10000003 cycles: 2971541 heartbeat IPC: 3.36526 cumulative IPC: 3.36526 (Simulation time: 0 hr 0 min 40 sec) 

Warmup complete CPU 0 instructions: 10000003 cycles: 2971541 (Simulation time: 0 hr 0 min 40 sec) 

Heartbeat CPU 0 instructions: 20000003 cycles: 49395999 heartbeat IPC: 0.215404 cumulative IPC: 0.215404 (Simulation time: 0 hr 2 min 39 sec) 
Heartbeat CPU 0 instructions: 30000002 cycles: 102194804 heartbeat IPC: 0.189398 cumulative IPC: 0.201566 (Simulation time: 0 hr 4 min 52 sec) 
Heartbeat CPU 0 instructions: 40000004 cycles: 138875118 heartbeat IPC: 0.272626 cumulative IPC: 0.220745 (Simulation time: 0 hr 6 min 51 sec) 
Heartbeat CPU 0 instructions: 50000002 cycles: 156975622 heartbeat IPC: 0.552471 cumulative IPC: 0.259733 (Simulation time: 0 hr 7 min 38 sec) 
Heartbeat CPU 0 instructions: 60000003 cycles: 174970578 heartbeat IPC: 0.555711 cumulative IPC: 0.290699 (Simulation time: 0 hr 8 min 23 sec) 
Heartbeat CPU 0 instructions: 70000000 cycles: 193168483 heartbeat IPC: 0.549514 cumulative IPC: 0.315462 (Simulation time: 0 hr 9 min 8 sec) 
Heartbeat CPU 0 instructions: 80000002 cycles: 211246491 heartbeat IPC: 0.553158 cumulative IPC: 0.336094 (Simulation time: 0 hr 9 min 48 sec) 
Heartbeat CPU 0 instructions: 90000000 cycles: 229374617 heartbeat IPC: 0.551629 cumulative IPC: 0.353352 (Simulation time: 0 hr 10 min 33 sec) 
Heartbeat CPU 0 instructions: 100000000 cycles: 247169200 heartbeat IPC: 0.561969 cumulative IPC: 0.368554 (Simulation time: 0 hr 11 min 14 sec) 
Heartbeat CPU 0 instructions: 110000002 cycles: 272263508 heartbeat IPC: 0.398497 cumulative IPC: 0.371344 (Simulation time: 0 hr 12 min 8 sec) 
Finished CPU 0 instructions: 100000004 cycles: 269291968 cumulative IPC: 0.371344 (Simulation time: 0 hr 12 min 8 sec) 

ChampSim completed all CPUs

Region of Interest Statistics

CPU 0 cumulative IPC: 0.371344 instructions: 100000004 cycles: 269291968
cpu0_DTLB TOTAL     ACCESS:   19458727  HIT:   19356545  MISS:     102182
cpu0_DTLB LOAD      ACCESS:   14021795  HIT:   13934662  MISS:      87133
cpu0_DTLB RFO       ACCESS:    5436932  HIT:    5421883  MISS:      15049
cpu0_DTLB PREFETCH  ACCESS:          0  HIT:          0  MISS:          0
cpu0_DTLB WRITEBACK ACCESS:          0  HIT:          0  MISS:          0
cpu0_DTLB TRANSLATION ACCESS:          0  HIT:          0  MISS:          0
cpu0_DTLB PREFETCH  REQUESTED:          0  ISSUED:          0  USEFUL:          0  USELESS:          0
cpu0_DTLB AVERAGE MISS LATENCY: 28.0608 cycles
cpu0_ITLB TOTAL     ACCESS:   10352494  HIT:   10352433  MISS:         61
cpu0_ITLB LOAD      ACCESS:   10352494  HIT:   10352433  MISS:         61
cpu0_ITLB RFO       ACCESS:          0  HIT:          0  MISS:          0
cpu0_ITLB PREFETCH  ACCESS:          0  HIT:          0  MISS:          0
cpu0_ITLB WRITEBACK ACCESS:          0  HIT:          0  MISS:          0
cpu0_ITLB TRANSLATION ACCESS:          0  HIT:          0  MISS:          0
cpu0_ITLB PREFETCH  REQUESTED:          0  ISSUED:          0  USEFUL:          0  USELESS:          0
cpu0_ITLB AVERAGE MISS LATENCY: 146.672 cycles
cpu0_L1I TOTAL     ACCESS:    6565304  HIT:    6564932  MISS:        372
cpu0_L1I LOAD      ACCESS:    6565304  HIT:    6564932  MISS:        372
cpu0_L1I RFO       ACCESS:          0  HIT:          0  MISS:          0
cpu0_L1I PREFETCH  ACCESS:          0  HIT:          0  MISS:          0
cpu0_L1I WRITEBACK ACCESS:          0  HIT:          0  MISS:          0
cpu0_L1I TRANSLATION ACCESS:          0  HIT:          0  MISS:          0
cpu0_L1I PREFETCH  REQUESTED:          0  ISSUED:          0  USEFUL:          0  USELESS:          0
cpu0_L1I AVERAGE MISS LATENCY: 171.169 cycles
cpu0_STLB TOTAL     ACCESS:     102243  HIT:      33343  MISS:      68900
cpu0_STLB LOAD      ACCESS:      87194  HIT:      30333  MISS:      56861
cpu0_STLB RFO       ACCESS:      15049  HIT:       3010  MISS:      12039
cpu0_STLB PREFETCH  ACCESS:          0  HIT:          0  MISS:          0
cpu0_STLB WRITEBACK ACCESS:          0  HIT:          0  MISS:          0
cpu0_STLB TRANSLATION ACCESS:          0  HIT:          0  MISS:          0
cpu0_STLB PREFETCH  REQUESTED:          0  ISSUED:          0  USEFUL:          0  USELESS:          0
cpu0_STLB AVERAGE MISS LATENCY: 28.3838 cycles
cpu0_L1D TOTAL     ACCESS:   26268486  HIT:   24724726  MISS:    1543760
cpu0_L1D LOAD      ACCESS:   12777609  HIT:   11510763  MISS:    1266846
cpu0_L1D RFO       ACCESS:   13422171  HIT:   13146329  MISS:     275842
cpu0_L1D PREFETCH  ACCESS:          0  HIT:          0  MISS:          0
cpu0_L1D WRITEBACK ACCESS:          0  HIT:          0  MISS:          0
cpu0_L1D TRANSLATION ACCESS:      68706  HIT:      67634  MISS:       1072
cpu0_L1D PREFETCH  REQUESTED:          0  ISSUED:          0  USEFUL:          0  USELESS:          0
cpu0_L1D AVERAGE MISS LATENCY: 261.079 cycles
cpu0_L2C TOTAL     ACCESS:    1956875  HIT:     461823  MISS:    1495052
cpu0_L2C LOAD      ACCESS:    1267218  HIT:      46450  MISS:    1220768
cpu0_L2C RFO       ACCESS:     275842  HIT:       1818  MISS:     274024
cpu0_L2C PREFETCH  ACCESS:          0  HIT:          0  MISS:          0
cpu0_L2C WRITEBACK ACCESS:     412743  HIT:     412692  MISS:         51
cpu0_L2C TRANSLATION ACCESS:       1072  HIT:        863  MISS:        209
cpu0_L2C PREFETCH  REQUESTED:          0  ISSUED:          0  USEFUL:          0  USELESS:          0
cpu0_L2C AVERAGE MISS LATENCY: 258.234 cycles
LLC TOTAL     ACCESS:    1905450  HIT:     247451  MISS:    1657999
LLC LOAD      ACCESS:    1220768  HIT:     115675  MISS:    1105093
LLC RFO       ACCESS:     274024  HIT:      34072  MISS:     239952
LLC PREFETCH  ACCESS:          0  HIT:          0  MISS:          0
LLC WRITEBACK ACCESS:     410449  HIT:      97520  MISS:     312929
LLC TRANSLATION ACCESS:        209  HIT:        184  MISS:         25
LLC PREFETCH  REQUESTED:          0  ISSUED:          0  USEFUL:          0  USELESS:          0
LLC AVERAGE MISS LATENCY: 213.919 cycles
Insertion Distribution: 
	LOAD 4217 0 140659 1230324 
	RFO 3286 0 64400 331998 
	PREF 0 0 0 0 
	WRITEBACK 0 0 0 485569 
	 0 0 28 25 
Total Prefetch Downgrades: 0

DRAM Statistics
 CHANNEL 0
 RQ ROW_BUFFER_HIT:     208121  ROW_BUFFER_MISS:    1136893
 DBUS AVG_CONGESTED_CYCLE:    3.92248
 WQ ROW_BUFFER_HIT:      43503  ROW_BUFFER_MISS:     323760  FULL:      76140


CPU 0 Branch Prediction Accuracy: 87.437% MPKI: 28.6507 Average ROB Occupancy at Mispredict: 19.8707
Branch type MPKI
BRANCH_DIRECT_JUMP: 0.0008
BRANCH_INDIRECT: 0.00403
BRANCH_CONDITIONAL: 28.6428
BRANCH_DIRECT_CALL: 0.00114
BRANCH_INDIRECT_CALL: 0.0008
BRANCH_RETURN: 0.00114

