
*** ChampSim Multicore Out-of-Order Simulator ***

Warmup Instructions: 10000000
Simulation Instructions: 100000000
Number of CPUs: 1
Off-chip DRAM Size: 4 GiB Channels: 1 Width: 64-bit Data Rate: 3200 MT/s

VirtualMemory physical capacity: 8588881920 num_ppages: 2096895
VirtualMemory page size: 4096 log2_page_size: 12

CPU 0 runs /datasets/cs240c-wi22-a00-public/data/Assignment2/cactusADM_1039B.trace.xz
CPU 0 Bimodal branch predictor
Basic BTB sets: 1024 ways: 8 indirect buffer size: 4096 RAS size: 64
Initialize SRRIP state
Heartbeat CPU 0 instructions: 10000004 cycles: 3647107 heartbeat IPC: 2.7419 cumulative IPC: 2.7419 (Simulation time: 0 hr 0 min 47 sec) 

Warmup complete CPU 0 instructions: 10000004 cycles: 3647107 (Simulation time: 0 hr 0 min 47 sec) 

Heartbeat CPU 0 instructions: 20000004 cycles: 13518215 heartbeat IPC: 1.01306 cumulative IPC: 1.01306 (Simulation time: 0 hr 2 min 17 sec) 
Heartbeat CPU 0 instructions: 30000000 cycles: 22584748 heartbeat IPC: 1.10296 cumulative IPC: 1.0561 (Simulation time: 0 hr 3 min 43 sec) 
Heartbeat CPU 0 instructions: 40000000 cycles: 32246984 heartbeat IPC: 1.03496 cumulative IPC: 1.04896 (Simulation time: 0 hr 5 min 12 sec) 
Heartbeat CPU 0 instructions: 50000004 cycles: 41069094 heartbeat IPC: 1.13352 cumulative IPC: 1.06889 (Simulation time: 0 hr 6 min 38 sec) 
Heartbeat CPU 0 instructions: 60000002 cycles: 47235194 heartbeat IPC: 1.62177 cumulative IPC: 1.1471 (Simulation time: 0 hr 7 min 49 sec) 
Heartbeat CPU 0 instructions: 70000003 cycles: 56480523 heartbeat IPC: 1.08163 cumulative IPC: 1.13564 (Simulation time: 0 hr 9 min 16 sec) 
Heartbeat CPU 0 instructions: 80000004 cycles: 64996208 heartbeat IPC: 1.1743 cumulative IPC: 1.14101 (Simulation time: 0 hr 10 min 39 sec) 
Heartbeat CPU 0 instructions: 90000004 cycles: 74178849 heartbeat IPC: 1.08901 cumulative IPC: 1.13424 (Simulation time: 0 hr 12 min 5 sec) 
Heartbeat CPU 0 instructions: 100000000 cycles: 80586997 heartbeat IPC: 1.56051 cumulative IPC: 1.16974 (Simulation time: 0 hr 13 min 19 sec) 
Heartbeat CPU 0 instructions: 110000001 cycles: 89011375 heartbeat IPC: 1.18703 cumulative IPC: 1.17145 (Simulation time: 0 hr 14 min 41 sec) 
Finished CPU 0 instructions: 100000002 cycles: 85364269 cumulative IPC: 1.17145 (Simulation time: 0 hr 14 min 41 sec) 

ChampSim completed all CPUs

Region of Interest Statistics

CPU 0 cumulative IPC: 1.17145 instructions: 100000002 cycles: 85364269
cpu0_DTLB TOTAL     ACCESS:   22884695  HIT:   20834905  MISS:    2049790
cpu0_DTLB LOAD      ACCESS:   18968385  HIT:   17535511  MISS:    1432874
cpu0_DTLB RFO       ACCESS:    3916310  HIT:    3299394  MISS:     616916
cpu0_DTLB PREFETCH  ACCESS:          0  HIT:          0  MISS:          0
cpu0_DTLB WRITEBACK ACCESS:          0  HIT:          0  MISS:          0
cpu0_DTLB TRANSLATION ACCESS:          0  HIT:          0  MISS:          0
cpu0_DTLB PREFETCH  REQUESTED:          0  ISSUED:          0  USEFUL:          0  USELESS:          0
cpu0_DTLB AVERAGE MISS LATENCY: 16.4054 cycles
cpu0_ITLB TOTAL     ACCESS:    1451349  HIT:    1451349  MISS:          0
cpu0_ITLB LOAD      ACCESS:    1451349  HIT:    1451349  MISS:          0
cpu0_ITLB RFO       ACCESS:          0  HIT:          0  MISS:          0
cpu0_ITLB PREFETCH  ACCESS:          0  HIT:          0  MISS:          0
cpu0_ITLB WRITEBACK ACCESS:          0  HIT:          0  MISS:          0
cpu0_ITLB TRANSLATION ACCESS:          0  HIT:          0  MISS:          0
cpu0_ITLB PREFETCH  REQUESTED:          0  ISSUED:          0  USEFUL:          0  USELESS:          0
cpu0_ITLB AVERAGE MISS LATENCY: -nan cycles
cpu0_L1I TOTAL     ACCESS:    8120060  HIT:    8120057  MISS:          3
cpu0_L1I LOAD      ACCESS:    8120060  HIT:    8120057  MISS:          3
cpu0_L1I RFO       ACCESS:          0  HIT:          0  MISS:          0
cpu0_L1I PREFETCH  ACCESS:          0  HIT:          0  MISS:          0
cpu0_L1I WRITEBACK ACCESS:          0  HIT:          0  MISS:          0
cpu0_L1I TRANSLATION ACCESS:          0  HIT:          0  MISS:          0
cpu0_L1I PREFETCH  REQUESTED:          0  ISSUED:          0  USEFUL:          0  USELESS:          0
cpu0_L1I AVERAGE MISS LATENCY: 1013.67 cycles
cpu0_STLB TOTAL     ACCESS:    2049790  HIT:    1129550  MISS:     920240
cpu0_STLB LOAD      ACCESS:    1432874  HIT:     834879  MISS:     597995
cpu0_STLB RFO       ACCESS:     616916  HIT:     294671  MISS:     322245
cpu0_STLB PREFETCH  ACCESS:          0  HIT:          0  MISS:          0
cpu0_STLB WRITEBACK ACCESS:          0  HIT:          0  MISS:          0
cpu0_STLB TRANSLATION ACCESS:          0  HIT:          0  MISS:          0
cpu0_STLB PREFETCH  REQUESTED:          0  ISSUED:          0  USEFUL:          0  USELESS:          0
cpu0_STLB AVERAGE MISS LATENCY: 16.3358 cycles
cpu0_L1D TOTAL     ACCESS:   37599722  HIT:   36275994  MISS:    1323728
cpu0_L1D LOAD      ACCESS:   25712118  HIT:   24659714  MISS:    1052404
cpu0_L1D RFO       ACCESS:   10968218  HIT:   10702847  MISS:     265371
cpu0_L1D PREFETCH  ACCESS:          0  HIT:          0  MISS:          0
cpu0_L1D WRITEBACK ACCESS:          0  HIT:          0  MISS:          0
cpu0_L1D TRANSLATION ACCESS:     919386  HIT:     913433  MISS:       5953
cpu0_L1D PREFETCH  REQUESTED:          0  ISSUED:          0  USEFUL:          0  USELESS:          0
cpu0_L1D AVERAGE MISS LATENCY: 302.513 cycles
cpu0_L2C TOTAL     ACCESS:    1592995  HIT:     694173  MISS:     898822
cpu0_L2C LOAD      ACCESS:    1052405  HIT:     419483  MISS:     632922
cpu0_L2C RFO       ACCESS:     265371  HIT:          0  MISS:     265371
cpu0_L2C PREFETCH  ACCESS:          0  HIT:          0  MISS:          0
cpu0_L2C WRITEBACK ACCESS:     269266  HIT:     269057  MISS:        209
cpu0_L2C TRANSLATION ACCESS:       5953  HIT:       5633  MISS:        320
cpu0_L2C PREFETCH  REQUESTED:          0  ISSUED:          0  USEFUL:          0  USELESS:          0
cpu0_L2C AVERAGE MISS LATENCY: 429.305 cycles
LLC TOTAL     ACCESS:    1165773  HIT:     329308  MISS:     836465
LLC LOAD      ACCESS:     632922  HIT:     146157  MISS:     486765
LLC RFO       ACCESS:     265371  HIT:      76365  MISS:     189006
LLC PREFETCH  ACCESS:          0  HIT:          0  MISS:          0
LLC WRITEBACK ACCESS:     267160  HIT:     106722  MISS:     160438
LLC TRANSLATION ACCESS:        320  HIT:         64  MISS:        256
LLC PREFETCH  REQUESTED:          0  ISSUED:          0  USEFUL:          0  USELESS:          0
LLC AVERAGE MISS LATENCY: 438.747 cycles
Insertion Distribution: 
	LOAD 79228 0 64611 393002 
	RFO 12340 0 20635 167312 
	PREF 0 0 0 0 
	WRITEBACK 0 0 0 163229 
	 0 0 58 239 
Total Prefetch Downgrades: 0

DRAM Statistics
 CHANNEL 0
 RQ ROW_BUFFER_HIT:       6558  ROW_BUFFER_MISS:     669455
 DBUS AVG_CONGESTED_CYCLE:    3.97542
 WQ ROW_BUFFER_HIT:      18148  ROW_BUFFER_MISS:     213452  FULL:        594


CPU 0 Branch Prediction Accuracy: 97.7479% MPKI: 0.04701 Average ROB Occupancy at Mispredict: 283.837
Branch type MPKI
BRANCH_DIRECT_JUMP: 0
BRANCH_INDIRECT: 0
BRANCH_CONDITIONAL: 0.04701
BRANCH_DIRECT_CALL: 0
BRANCH_INDIRECT_CALL: 0
BRANCH_RETURN: 0

