
*** ChampSim Multicore Out-of-Order Simulator ***

Warmup Instructions: 10000000
Simulation Instructions: 100000000
Number of CPUs: 1
Off-chip DRAM Size: 4 GiB Channels: 1 Width: 64-bit Data Rate: 3200 MT/s

VirtualMemory physical capacity: 8588881920 num_ppages: 2096895
VirtualMemory page size: 4096 log2_page_size: 12

CPU 0 runs /datasets/cs240c-wi22-a00-public/data/Assignment2/sphinx3_2520B.trace.xz
CPU 0 Bimodal branch predictor
Basic BTB sets: 1024 ways: 8 indirect buffer size: 4096 RAS size: 64
Initialize SRRIP state
Heartbeat CPU 0 instructions: 10000000 cycles: 2589701 heartbeat IPC: 3.86145 cumulative IPC: 3.86145 (Simulation time: 0 hr 0 min 31 sec) 

Warmup complete CPU 0 instructions: 10000004 cycles: 2589702 (Simulation time: 0 hr 0 min 31 sec) 

Heartbeat CPU 0 instructions: 20000002 cycles: 8781840 heartbeat IPC: 1.61495 cumulative IPC: 1.61495 (Simulation time: 0 hr 1 min 16 sec) 
Heartbeat CPU 0 instructions: 30000000 cycles: 14918530 heartbeat IPC: 1.62954 cumulative IPC: 1.62221 (Simulation time: 0 hr 2 min 1 sec) 
Heartbeat CPU 0 instructions: 40000002 cycles: 20687129 heartbeat IPC: 1.73352 cumulative IPC: 1.65769 (Simulation time: 0 hr 2 min 45 sec) 
Heartbeat CPU 0 instructions: 50000002 cycles: 26785258 heartbeat IPC: 1.63985 cumulative IPC: 1.6532 (Simulation time: 0 hr 3 min 29 sec) 
Heartbeat CPU 0 instructions: 60000001 cycles: 32619707 heartbeat IPC: 1.71396 cumulative IPC: 1.665 (Simulation time: 0 hr 4 min 13 sec) 
Heartbeat CPU 0 instructions: 70000004 cycles: 38312500 heartbeat IPC: 1.75661 cumulative IPC: 1.6796 (Simulation time: 0 hr 4 min 56 sec) 
Heartbeat CPU 0 instructions: 80000000 cycles: 44162123 heartbeat IPC: 1.70951 cumulative IPC: 1.68381 (Simulation time: 0 hr 5 min 41 sec) 
Heartbeat CPU 0 instructions: 90000003 cycles: 49943996 heartbeat IPC: 1.72954 cumulative IPC: 1.68939 (Simulation time: 0 hr 6 min 25 sec) 
Heartbeat CPU 0 instructions: 100000002 cycles: 55918317 heartbeat IPC: 1.67383 cumulative IPC: 1.68765 (Simulation time: 0 hr 7 min 9 sec) 
Heartbeat CPU 0 instructions: 110000004 cycles: 64770472 heartbeat IPC: 1.12967 cumulative IPC: 1.60821 (Simulation time: 0 hr 8 min 7 sec) 
Finished CPU 0 instructions: 100000000 cycles: 62180770 cumulative IPC: 1.60821 (Simulation time: 0 hr 8 min 7 sec) 

ChampSim completed all CPUs

Region of Interest Statistics

CPU 0 cumulative IPC: 1.60821 instructions: 100000000 cycles: 62180770
cpu0_DTLB TOTAL     ACCESS:   16092453  HIT:   16036586  MISS:      55867
cpu0_DTLB LOAD      ACCESS:   15052711  HIT:   15000197  MISS:      52514
cpu0_DTLB RFO       ACCESS:    1039742  HIT:    1036389  MISS:       3353
cpu0_DTLB PREFETCH  ACCESS:          0  HIT:          0  MISS:          0
cpu0_DTLB WRITEBACK ACCESS:          0  HIT:          0  MISS:          0
cpu0_DTLB TRANSLATION ACCESS:          0  HIT:          0  MISS:          0
cpu0_DTLB PREFETCH  REQUESTED:          0  ISSUED:          0  USEFUL:          0  USELESS:          0
cpu0_DTLB AVERAGE MISS LATENCY: 11.3136 cycles
cpu0_ITLB TOTAL     ACCESS:    9562239  HIT:    9562197  MISS:         42
cpu0_ITLB LOAD      ACCESS:    9562239  HIT:    9562197  MISS:         42
cpu0_ITLB RFO       ACCESS:          0  HIT:          0  MISS:          0
cpu0_ITLB PREFETCH  ACCESS:          0  HIT:          0  MISS:          0
cpu0_ITLB WRITEBACK ACCESS:          0  HIT:          0  MISS:          0
cpu0_ITLB TRANSLATION ACCESS:          0  HIT:          0  MISS:          0
cpu0_ITLB PREFETCH  REQUESTED:          0  ISSUED:          0  USEFUL:          0  USELESS:          0
cpu0_ITLB AVERAGE MISS LATENCY: 139.762 cycles
cpu0_L1I TOTAL     ACCESS:     267853  HIT:     266558  MISS:       1295
cpu0_L1I LOAD      ACCESS:     267853  HIT:     266558  MISS:       1295
cpu0_L1I RFO       ACCESS:          0  HIT:          0  MISS:          0
cpu0_L1I PREFETCH  ACCESS:          0  HIT:          0  MISS:          0
cpu0_L1I WRITEBACK ACCESS:          0  HIT:          0  MISS:          0
cpu0_L1I TRANSLATION ACCESS:          0  HIT:          0  MISS:          0
cpu0_L1I PREFETCH  REQUESTED:          0  ISSUED:          0  USEFUL:          0  USELESS:          0
cpu0_L1I AVERAGE MISS LATENCY: 152.568 cycles
cpu0_STLB TOTAL     ACCESS:      55909  HIT:      51102  MISS:       4807
cpu0_STLB LOAD      ACCESS:      52556  HIT:      47881  MISS:       4675
cpu0_STLB RFO       ACCESS:       3353  HIT:       3221  MISS:        132
cpu0_STLB PREFETCH  ACCESS:          0  HIT:          0  MISS:          0
cpu0_STLB WRITEBACK ACCESS:          0  HIT:          0  MISS:          0
cpu0_STLB TRANSLATION ACCESS:          0  HIT:          0  MISS:          0
cpu0_STLB PREFETCH  REQUESTED:          0  ISSUED:          0  USEFUL:          0  USELESS:          0
cpu0_STLB AVERAGE MISS LATENCY: 27.5159 cycles
cpu0_L1D TOTAL     ACCESS:   11562920  HIT:   10223529  MISS:    1339391
cpu0_L1D LOAD      ACCESS:   10199598  HIT:    8985856  MISS:    1213742
cpu0_L1D RFO       ACCESS:    1358788  HIT:    1233253  MISS:     125535
cpu0_L1D PREFETCH  ACCESS:          0  HIT:          0  MISS:          0
cpu0_L1D WRITEBACK ACCESS:          0  HIT:          0  MISS:          0
cpu0_L1D TRANSLATION ACCESS:       4534  HIT:       4420  MISS:        114
cpu0_L1D PREFETCH  REQUESTED:          0  ISSUED:          0  USEFUL:          0  USELESS:          0
cpu0_L1D AVERAGE MISS LATENCY: 74.1499 cycles
cpu0_L2C TOTAL     ACCESS:    1472899  HIT:     251134  MISS:    1221765
cpu0_L2C LOAD      ACCESS:    1215036  HIT:     113627  MISS:    1101409
cpu0_L2C RFO       ACCESS:     125535  HIT:       5426  MISS:     120109
cpu0_L2C PREFETCH  ACCESS:          0  HIT:          0  MISS:          0
cpu0_L2C WRITEBACK ACCESS:     132214  HIT:     132052  MISS:        162
cpu0_L2C TRANSLATION ACCESS:        114  HIT:         29  MISS:         85
cpu0_L2C PREFETCH  REQUESTED:          0  ISSUED:          0  USEFUL:          0  USELESS:          0
cpu0_L2C AVERAGE MISS LATENCY: 69.3578 cycles
LLC TOTAL     ACCESS:    1348258  HIT:     987427  MISS:     360831
LLC LOAD      ACCESS:    1101409  HIT:     748096  MISS:     353313
LLC RFO       ACCESS:     120109  HIT:     114122  MISS:       5987
LLC PREFETCH  ACCESS:          0  HIT:          0  MISS:          0
LLC WRITEBACK ACCESS:     126655  HIT:     125148  MISS:       1507
LLC TRANSLATION ACCESS:         85  HIT:         61  MISS:         24
LLC PREFETCH  REQUESTED:          0  ISSUED:          0  USEFUL:          0  USELESS:          0
LLC AVERAGE MISS LATENCY: 163.741 cycles
Insertion Distribution: 
	LOAD 28778 0 76290 327559 
	RFO 4636 0 5442 600 
	PREF 0 0 0 0 
	WRITEBACK 0 0 0 1577 
	 1 0 32 8 
Total Prefetch Downgrades: 0

DRAM Statistics
 CHANNEL 0
 RQ ROW_BUFFER_HIT:      97928  ROW_BUFFER_MISS:     261153
 DBUS AVG_CONGESTED_CYCLE:    3.80545
 WQ ROW_BUFFER_HIT:       3383  ROW_BUFFER_MISS:       4458  FULL:          0


CPU 0 Branch Prediction Accuracy: 93.1904% MPKI: 5.9173 Average ROB Occupancy at Mispredict: 190.051
Branch type MPKI
BRANCH_DIRECT_JUMP: 0.00106
BRANCH_INDIRECT: 0
BRANCH_CONDITIONAL: 5.91482
BRANCH_DIRECT_CALL: 0.00069
BRANCH_INDIRECT_CALL: 3e-05
BRANCH_RETURN: 0.0007

