
*** ChampSim Multicore Out-of-Order Simulator ***

Warmup Instructions: 10000000
Simulation Instructions: 100000000
Number of CPUs: 1
Off-chip DRAM Size: 4 GiB Channels: 1 Width: 64-bit Data Rate: 3200 MT/s

VirtualMemory physical capacity: 8588881920 num_ppages: 2096895
VirtualMemory page size: 4096 log2_page_size: 12

CPU 0 runs /datasets/cs240c-wi22-a00-public/data/Assignment2/wrf_1228B.trace.xz
CPU 0 Bimodal branch predictor
Basic BTB sets: 1024 ways: 8 indirect buffer size: 4096 RAS size: 64
Initialize SRRIP state
Heartbeat CPU 0 instructions: 10000001 cycles: 3904492 heartbeat IPC: 2.56115 cumulative IPC: 2.56115 (Simulation time: 0 hr 0 min 51 sec) 

Warmup complete CPU 0 instructions: 10000001 cycles: 3904492 (Simulation time: 0 hr 0 min 51 sec) 

Heartbeat CPU 0 instructions: 20000001 cycles: 12422531 heartbeat IPC: 1.17398 cumulative IPC: 1.17398 (Simulation time: 0 hr 1 min 59 sec) 
Heartbeat CPU 0 instructions: 30000003 cycles: 24118499 heartbeat IPC: 0.854996 cumulative IPC: 0.989413 (Simulation time: 0 hr 3 min 25 sec) 
Heartbeat CPU 0 instructions: 40000003 cycles: 37743976 heartbeat IPC: 0.733919 cumulative IPC: 0.886538 (Simulation time: 0 hr 5 min 2 sec) 
Heartbeat CPU 0 instructions: 50000001 cycles: 46047489 heartbeat IPC: 1.20431 cumulative IPC: 0.949149 (Simulation time: 0 hr 6 min 8 sec) 
Heartbeat CPU 0 instructions: 60000003 cycles: 56411396 heartbeat IPC: 0.964887 cumulative IPC: 0.952256 (Simulation time: 0 hr 7 min 21 sec) 
Heartbeat CPU 0 instructions: 70000001 cycles: 68195815 heartbeat IPC: 0.848578 cumulative IPC: 0.933252 (Simulation time: 0 hr 8 min 28 sec) 
Heartbeat CPU 0 instructions: 80000004 cycles: 77905968 heartbeat IPC: 1.02985 cumulative IPC: 0.945927 (Simulation time: 0 hr 9 min 22 sec) 
Heartbeat CPU 0 instructions: 90000001 cycles: 87591123 heartbeat IPC: 1.03251 cumulative IPC: 0.955947 (Simulation time: 0 hr 10 min 15 sec) 
Heartbeat CPU 0 instructions: 100000002 cycles: 97269623 heartbeat IPC: 1.03322 cumulative IPC: 0.963957 (Simulation time: 0 hr 11 min 9 sec) 
Heartbeat CPU 0 instructions: 110000000 cycles: 106939951 heartbeat IPC: 1.03409 cumulative IPC: 0.97054 (Simulation time: 0 hr 12 min 1 sec) 
Finished CPU 0 instructions: 100000004 cycles: 103035460 cumulative IPC: 0.97054 (Simulation time: 0 hr 12 min 1 sec) 

ChampSim completed all CPUs

Region of Interest Statistics

CPU 0 cumulative IPC: 0.97054 instructions: 100000004 cycles: 103035460
cpu0_DTLB TOTAL     ACCESS:   19667842  HIT:   19571605  MISS:      96237
cpu0_DTLB LOAD      ACCESS:   17651343  HIT:   17569414  MISS:      81929
cpu0_DTLB RFO       ACCESS:    2016499  HIT:    2002191  MISS:      14308
cpu0_DTLB PREFETCH  ACCESS:          0  HIT:          0  MISS:          0
cpu0_DTLB WRITEBACK ACCESS:          0  HIT:          0  MISS:          0
cpu0_DTLB TRANSLATION ACCESS:          0  HIT:          0  MISS:          0
cpu0_DTLB PREFETCH  REQUESTED:          0  ISSUED:          0  USEFUL:          0  USELESS:          0
cpu0_DTLB AVERAGE MISS LATENCY: 20.0652 cycles
cpu0_ITLB TOTAL     ACCESS:    4196991  HIT:    4196979  MISS:         12
cpu0_ITLB LOAD      ACCESS:    4196991  HIT:    4196979  MISS:         12
cpu0_ITLB RFO       ACCESS:          0  HIT:          0  MISS:          0
cpu0_ITLB PREFETCH  ACCESS:          0  HIT:          0  MISS:          0
cpu0_ITLB WRITEBACK ACCESS:          0  HIT:          0  MISS:          0
cpu0_ITLB TRANSLATION ACCESS:          0  HIT:          0  MISS:          0
cpu0_ITLB PREFETCH  REQUESTED:          0  ISSUED:          0  USEFUL:          0  USELESS:          0
cpu0_ITLB AVERAGE MISS LATENCY: 220.583 cycles
cpu0_L1I TOTAL     ACCESS:    6671771  HIT:    6671023  MISS:        748
cpu0_L1I LOAD      ACCESS:    6671771  HIT:    6671023  MISS:        748
cpu0_L1I RFO       ACCESS:          0  HIT:          0  MISS:          0
cpu0_L1I PREFETCH  ACCESS:          0  HIT:          0  MISS:          0
cpu0_L1I WRITEBACK ACCESS:          0  HIT:          0  MISS:          0
cpu0_L1I TRANSLATION ACCESS:          0  HIT:          0  MISS:          0
cpu0_L1I PREFETCH  REQUESTED:          0  ISSUED:          0  USEFUL:          0  USELESS:          0
cpu0_L1I AVERAGE MISS LATENCY: 354.005 cycles
cpu0_STLB TOTAL     ACCESS:      96249  HIT:      86695  MISS:       9554
cpu0_STLB LOAD      ACCESS:      81941  HIT:      75033  MISS:       6908
cpu0_STLB RFO       ACCESS:      14308  HIT:      11662  MISS:       2646
cpu0_STLB PREFETCH  ACCESS:          0  HIT:          0  MISS:          0
cpu0_STLB WRITEBACK ACCESS:          0  HIT:          0  MISS:          0
cpu0_STLB TRANSLATION ACCESS:          0  HIT:          0  MISS:          0
cpu0_STLB PREFETCH  REQUESTED:          0  ISSUED:          0  USEFUL:          0  USELESS:          0
cpu0_STLB AVERAGE MISS LATENCY: 111.706 cycles
cpu0_L1D TOTAL     ACCESS:   18902279  HIT:   17543858  MISS:    1358421
cpu0_L1D LOAD      ACCESS:   14862227  HIT:   13763154  MISS:    1099073
cpu0_L1D RFO       ACCESS:    4030506  HIT:    3771946  MISS:     258560
cpu0_L1D PREFETCH  ACCESS:          0  HIT:          0  MISS:          0
cpu0_L1D WRITEBACK ACCESS:          0  HIT:          0  MISS:          0
cpu0_L1D TRANSLATION ACCESS:       9546  HIT:       8758  MISS:        788
cpu0_L1D PREFETCH  REQUESTED:          0  ISSUED:          0  USEFUL:          0  USELESS:          0
cpu0_L1D AVERAGE MISS LATENCY: 220.443 cycles
cpu0_L2C TOTAL     ACCESS:    1836388  HIT:     802947  MISS:    1033441
cpu0_L2C LOAD      ACCESS:    1099796  HIT:     287173  MISS:     812623
cpu0_L2C RFO       ACCESS:     258556  HIT:      39539  MISS:     219017
cpu0_L2C PREFETCH  ACCESS:          0  HIT:          0  MISS:          0
cpu0_L2C WRITEBACK ACCESS:     477248  HIT:     475559  MISS:       1689
cpu0_L2C TRANSLATION ACCESS:        788  HIT:        676  MISS:        112
cpu0_L2C PREFETCH  REQUESTED:          0  ISSUED:          0  USEFUL:          0  USELESS:          0
cpu0_L2C AVERAGE MISS LATENCY: 275.533 cycles
LLC TOTAL     ACCESS:    1463812  HIT:     402677  MISS:    1061135
LLC LOAD      ACCESS:     812623  HIT:     174711  MISS:     637912
LLC RFO       ACCESS:     219017  HIT:      27272  MISS:     191745
LLC PREFETCH  ACCESS:          0  HIT:          0  MISS:          0
LLC WRITEBACK ACCESS:     432060  HIT:     200651  MISS:     231409
LLC TRANSLATION ACCESS:        112  HIT:         43  MISS:         69
LLC PREFETCH  REQUESTED:          0  ISSUED:          0  USEFUL:          0  USELESS:          0
LLC AVERAGE MISS LATENCY: 247.896 cycles
Insertion Distribution: 
	LOAD 37299 0 116741 649207 
	RFO 29137 0 51223 186491 
	PREF 0 0 0 0 
	WRITEBACK 0 0 0 294580 
	 2 0 59 34 
Total Prefetch Downgrades: 0

DRAM Statistics
 CHANNEL 0
 RQ ROW_BUFFER_HIT:      96253  ROW_BUFFER_MISS:     733163
 DBUS AVG_CONGESTED_CYCLE:    3.93182
 WQ ROW_BUFFER_HIT:      28904  ROW_BUFFER_MISS:     282057  FULL:      42398


CPU 0 Branch Prediction Accuracy: 97.4481% MPKI: 2.04611 Average ROB Occupancy at Mispredict: 259.285
Branch type MPKI
BRANCH_DIRECT_JUMP: 0.00028
BRANCH_INDIRECT: 0
BRANCH_CONDITIONAL: 2.0456
BRANCH_DIRECT_CALL: 0.00011
BRANCH_INDIRECT_CALL: 0
BRANCH_RETURN: 0.00012

