
*** ChampSim Multicore Out-of-Order Simulator ***

Warmup Instructions: 10000000
Simulation Instructions: 100000000
Number of CPUs: 1
Off-chip DRAM Size: 4 GiB Channels: 1 Width: 64-bit Data Rate: 3200 MT/s

VirtualMemory physical capacity: 8588881920 num_ppages: 2096895
VirtualMemory page size: 4096 log2_page_size: 12

CPU 0 runs /datasets/cs240c-wi22-a00-public/data/Assignment2/leslie3d_1186B.trace.xz
CPU 0 Bimodal branch predictor
Basic BTB sets: 1024 ways: 8 indirect buffer size: 4096 RAS size: 64
Initialize SRRIP state
Heartbeat CPU 0 instructions: 10000000 cycles: 4308787 heartbeat IPC: 2.32084 cumulative IPC: 2.32084 (Simulation time: 0 hr 1 min 15 sec) 

Warmup complete CPU 0 instructions: 10000005 cycles: 4308788 (Simulation time: 0 hr 1 min 15 sec) 

Heartbeat CPU 0 instructions: 20000000 cycles: 17984146 heartbeat IPC: 0.731242 cumulative IPC: 0.731242 (Simulation time: 0 hr 3 min 25 sec) 
Heartbeat CPU 0 instructions: 30000000 cycles: 32027841 heartbeat IPC: 0.712063 cumulative IPC: 0.721525 (Simulation time: 0 hr 5 min 38 sec) 
Heartbeat CPU 0 instructions: 40000004 cycles: 45619250 heartbeat IPC: 0.735759 cumulative IPC: 0.726208 (Simulation time: 0 hr 7 min 48 sec) 
Heartbeat CPU 0 instructions: 50000001 cycles: 62783140 heartbeat IPC: 0.582618 cumulative IPC: 0.684061 (Simulation time: 0 hr 10 min 6 sec) 
Heartbeat CPU 0 instructions: 60000000 cycles: 97880628 heartbeat IPC: 0.284921 cumulative IPC: 0.534349 (Simulation time: 0 hr 14 min 0 sec) 
Heartbeat CPU 0 instructions: 70000000 cycles: 126476370 heartbeat IPC: 0.349702 cumulative IPC: 0.491129 (Simulation time: 0 hr 17 min 25 sec) 
Heartbeat CPU 0 instructions: 80000003 cycles: 136807423 heartbeat IPC: 0.967956 cumulative IPC: 0.528307 (Simulation time: 0 hr 19 min 17 sec) 
Heartbeat CPU 0 instructions: 90000002 cycles: 147130078 heartbeat IPC: 0.968743 cumulative IPC: 0.560141 (Simulation time: 0 hr 21 min 7 sec) 
Heartbeat CPU 0 instructions: 100000000 cycles: 157428140 heartbeat IPC: 0.971056 cumulative IPC: 0.587777 (Simulation time: 0 hr 22 min 58 sec) 
Heartbeat CPU 0 instructions: 110000000 cycles: 167746016 heartbeat IPC: 0.969192 cumulative IPC: 0.611856 (Simulation time: 0 hr 24 min 50 sec) 
Finished CPU 0 instructions: 100000000 cycles: 163437229 cumulative IPC: 0.611856 (Simulation time: 0 hr 24 min 50 sec) 

ChampSim completed all CPUs

Region of Interest Statistics

CPU 0 cumulative IPC: 0.611856 instructions: 100000000 cycles: 163437229
cpu0_DTLB TOTAL     ACCESS:   27961408  HIT:   27863771  MISS:      97637
cpu0_DTLB LOAD      ACCESS:   23287848  HIT:   23201965  MISS:      85883
cpu0_DTLB RFO       ACCESS:    4673560  HIT:    4661806  MISS:      11754
cpu0_DTLB PREFETCH  ACCESS:          0  HIT:          0  MISS:          0
cpu0_DTLB WRITEBACK ACCESS:          0  HIT:          0  MISS:          0
cpu0_DTLB TRANSLATION ACCESS:          0  HIT:          0  MISS:          0
cpu0_DTLB PREFETCH  REQUESTED:          0  ISSUED:          0  USEFUL:          0  USELESS:          0
cpu0_DTLB AVERAGE MISS LATENCY: 51.3937 cycles
cpu0_ITLB TOTAL     ACCESS:    2916507  HIT:    2916494  MISS:         13
cpu0_ITLB LOAD      ACCESS:    2916507  HIT:    2916494  MISS:         13
cpu0_ITLB RFO       ACCESS:          0  HIT:          0  MISS:          0
cpu0_ITLB PREFETCH  ACCESS:          0  HIT:          0  MISS:          0
cpu0_ITLB WRITEBACK ACCESS:          0  HIT:          0  MISS:          0
cpu0_ITLB TRANSLATION ACCESS:          0  HIT:          0  MISS:          0
cpu0_ITLB PREFETCH  REQUESTED:          0  ISSUED:          0  USEFUL:          0  USELESS:          0
cpu0_ITLB AVERAGE MISS LATENCY: 296.615 cycles
cpu0_L1I TOTAL     ACCESS:    1737292  HIT:    1736912  MISS:        380
cpu0_L1I LOAD      ACCESS:    1737292  HIT:    1736912  MISS:        380
cpu0_L1I RFO       ACCESS:          0  HIT:          0  MISS:          0
cpu0_L1I PREFETCH  ACCESS:          0  HIT:          0  MISS:          0
cpu0_L1I WRITEBACK ACCESS:          0  HIT:          0  MISS:          0
cpu0_L1I TRANSLATION ACCESS:          0  HIT:          0  MISS:          0
cpu0_L1I PREFETCH  REQUESTED:          0  ISSUED:          0  USEFUL:          0  USELESS:          0
cpu0_L1I AVERAGE MISS LATENCY: 304.905 cycles
cpu0_STLB TOTAL     ACCESS:      97650  HIT:      70248  MISS:      27402
cpu0_STLB LOAD      ACCESS:      85896  HIT:      63169  MISS:      22727
cpu0_STLB RFO       ACCESS:      11754  HIT:       7079  MISS:       4675
cpu0_STLB PREFETCH  ACCESS:          0  HIT:          0  MISS:          0
cpu0_STLB WRITEBACK ACCESS:          0  HIT:          0  MISS:          0
cpu0_STLB TRANSLATION ACCESS:          0  HIT:          0  MISS:          0
cpu0_STLB PREFETCH  REQUESTED:          0  ISSUED:          0  USEFUL:          0  USELESS:          0
cpu0_STLB AVERAGE MISS LATENCY: 151.136 cycles
cpu0_L1D TOTAL     ACCESS:   26983164  HIT:   23080325  MISS:    3902839
cpu0_L1D LOAD      ACCESS:   17758407  HIT:   14574529  MISS:    3183878
cpu0_L1D RFO       ACCESS:    9200167  HIT:    8484649  MISS:     715518
cpu0_L1D PREFETCH  ACCESS:          0  HIT:          0  MISS:          0
cpu0_L1D WRITEBACK ACCESS:          0  HIT:          0  MISS:          0
cpu0_L1D TRANSLATION ACCESS:      24590  HIT:      21147  MISS:       3443
cpu0_L1D PREFETCH  REQUESTED:          0  ISSUED:          0  USEFUL:          0  USELESS:          0
cpu0_L1D AVERAGE MISS LATENCY: 358.871 cycles
cpu0_L2C TOTAL     ACCESS:    4956334  HIT:    2399122  MISS:    2557212
cpu0_L2C LOAD      ACCESS:    3184208  HIT:    1037070  MISS:    2147138
cpu0_L2C RFO       ACCESS:     715202  HIT:     307550  MISS:     407652
cpu0_L2C PREFETCH  ACCESS:          0  HIT:          0  MISS:          0
cpu0_L2C WRITEBACK ACCESS:    1053481  HIT:    1051269  MISS:       2212
cpu0_L2C TRANSLATION ACCESS:       3443  HIT:       3233  MISS:        210
cpu0_L2C PREFETCH  REQUESTED:          0  ISSUED:          0  USEFUL:          0  USELESS:          0
cpu0_L2C AVERAGE MISS LATENCY: 530.912 cycles
LLC TOTAL     ACCESS:    3217336  HIT:     826674  MISS:    2390662
LLC LOAD      ACCESS:    2147129  HIT:     527837  MISS:    1619292
LLC RFO       ACCESS:     407642  HIT:     117390  MISS:     290252
LLC PREFETCH  ACCESS:          0  HIT:          0  MISS:          0
LLC WRITEBACK ACCESS:     662355  HIT:     181254  MISS:     481101
LLC TRANSLATION ACCESS:        210  HIT:        193  MISS:         17
LLC PREFETCH  REQUESTED:          0  ISSUED:          0  USEFUL:          0  USELESS:          0
LLC AVERAGE MISS LATENCY: 545.414 cycles
Insertion Distribution: 
	LOAD 10964 0 437766 1337041 
	RFO 16 0 24313 267969 
	PREF 0 0 0 0 
	WRITEBACK 0 0 0 499476 
	 0 0 34 2 
Total Prefetch Downgrades: 0

DRAM Statistics
 CHANNEL 0
 RQ ROW_BUFFER_HIT:     222501  ROW_BUFFER_MISS:    1687016
 DBUS AVG_CONGESTED_CYCLE:    3.94948
 WQ ROW_BUFFER_HIT:      40877  ROW_BUFFER_MISS:     487460  FULL:      21867


CPU 0 Branch Prediction Accuracy: 96.8384% MPKI: 1.47634 Average ROB Occupancy at Mispredict: 311.709
Branch type MPKI
BRANCH_DIRECT_JUMP: 0.00016
BRANCH_INDIRECT: 0
BRANCH_CONDITIONAL: 1.47504
BRANCH_DIRECT_CALL: 0.00057
BRANCH_INDIRECT_CALL: 0
BRANCH_RETURN: 0.00057

