
*** ChampSim Multicore Out-of-Order Simulator ***

Warmup Instructions: 10000000
Simulation Instructions: 100000000
Number of CPUs: 1
Off-chip DRAM Size: 4 GiB Channels: 1 Width: 64-bit Data Rate: 3200 MT/s

VirtualMemory physical capacity: 8588881920 num_ppages: 2096895
VirtualMemory page size: 4096 log2_page_size: 12

CPU 0 runs /datasets/cs240c-wi22-a00-public/data/Assignment2/milc_744B.trace.xz
CPU 0 Bimodal branch predictor
Basic BTB sets: 1024 ways: 8 indirect buffer size: 4096 RAS size: 64
Initialize SRRIP state
Heartbeat CPU 0 instructions: 10000000 cycles: 2597395 heartbeat IPC: 3.85001 cumulative IPC: 3.85001 (Simulation time: 0 hr 0 min 33 sec) 

Warmup complete CPU 0 instructions: 10000005 cycles: 2597401 (Simulation time: 0 hr 0 min 33 sec) 

Heartbeat CPU 0 instructions: 20000003 cycles: 16311763 heartbeat IPC: 0.729163 cumulative IPC: 0.729162 (Simulation time: 0 hr 1 min 31 sec) 
Heartbeat CPU 0 instructions: 30000004 cycles: 30041004 heartbeat IPC: 0.728372 cumulative IPC: 0.728767 (Simulation time: 0 hr 2 min 31 sec) 
Heartbeat CPU 0 instructions: 40000002 cycles: 43762763 heartbeat IPC: 0.728769 cumulative IPC: 0.728768 (Simulation time: 0 hr 3 min 29 sec) 
Heartbeat CPU 0 instructions: 50000000 cycles: 57504387 heartbeat IPC: 0.727716 cumulative IPC: 0.728505 (Simulation time: 0 hr 4 min 28 sec) 
Heartbeat CPU 0 instructions: 60000000 cycles: 71230267 heartbeat IPC: 0.728551 cumulative IPC: 0.728514 (Simulation time: 0 hr 5 min 25 sec) 
Heartbeat CPU 0 instructions: 70000002 cycles: 84964686 heartbeat IPC: 0.728098 cumulative IPC: 0.728445 (Simulation time: 0 hr 6 min 19 sec) 
Heartbeat CPU 0 instructions: 80000003 cycles: 98668872 heartbeat IPC: 0.729704 cumulative IPC: 0.728624 (Simulation time: 0 hr 7 min 17 sec) 
Heartbeat CPU 0 instructions: 90000002 cycles: 112355999 heartbeat IPC: 0.730613 cumulative IPC: 0.728872 (Simulation time: 0 hr 8 min 16 sec) 
Heartbeat CPU 0 instructions: 100000002 cycles: 146727890 heartbeat IPC: 0.290935 cumulative IPC: 0.624434 (Simulation time: 0 hr 13 min 32 sec) 
Heartbeat CPU 0 instructions: 110000004 cycles: 157057774 heartbeat IPC: 0.968065 cumulative IPC: 0.647415 (Simulation time: 0 hr 14 min 24 sec) 
Finished CPU 0 instructions: 100000004 cycles: 154460374 cumulative IPC: 0.647415 (Simulation time: 0 hr 14 min 24 sec) 

ChampSim completed all CPUs

Region of Interest Statistics

CPU 0 cumulative IPC: 0.647415 instructions: 100000004 cycles: 154460374
cpu0_DTLB TOTAL     ACCESS:   13562946  HIT:   13428162  MISS:     134784
cpu0_DTLB LOAD      ACCESS:   10518956  HIT:   10390799  MISS:     128157
cpu0_DTLB RFO       ACCESS:    3043990  HIT:    3037363  MISS:       6627
cpu0_DTLB PREFETCH  ACCESS:          0  HIT:          0  MISS:          0
cpu0_DTLB WRITEBACK ACCESS:          0  HIT:          0  MISS:          0
cpu0_DTLB TRANSLATION ACCESS:          0  HIT:          0  MISS:          0
cpu0_DTLB PREFETCH  REQUESTED:          0  ISSUED:          0  USEFUL:          0  USELESS:          0
cpu0_DTLB AVERAGE MISS LATENCY: 147.445 cycles
cpu0_ITLB TOTAL     ACCESS:    8135552  HIT:    8135547  MISS:          5
cpu0_ITLB LOAD      ACCESS:    8135552  HIT:    8135547  MISS:          5
cpu0_ITLB RFO       ACCESS:          0  HIT:          0  MISS:          0
cpu0_ITLB PREFETCH  ACCESS:          0  HIT:          0  MISS:          0
cpu0_ITLB WRITEBACK ACCESS:          0  HIT:          0  MISS:          0
cpu0_ITLB TRANSLATION ACCESS:          0  HIT:          0  MISS:          0
cpu0_ITLB PREFETCH  REQUESTED:          0  ISSUED:          0  USEFUL:          0  USELESS:          0
cpu0_ITLB AVERAGE MISS LATENCY: 219.2 cycles
cpu0_L1I TOTAL     ACCESS:     365359  HIT:     365312  MISS:         47
cpu0_L1I LOAD      ACCESS:     365359  HIT:     365312  MISS:         47
cpu0_L1I RFO       ACCESS:          0  HIT:          0  MISS:          0
cpu0_L1I PREFETCH  ACCESS:          0  HIT:          0  MISS:          0
cpu0_L1I WRITEBACK ACCESS:          0  HIT:          0  MISS:          0
cpu0_L1I TRANSLATION ACCESS:          0  HIT:          0  MISS:          0
cpu0_L1I PREFETCH  REQUESTED:          0  ISSUED:          0  USEFUL:          0  USELESS:          0
cpu0_L1I AVERAGE MISS LATENCY: 263.596 cycles
cpu0_STLB TOTAL     ACCESS:     134789  HIT:       2588  MISS:     132201
cpu0_STLB LOAD      ACCESS:     128162  HIT:       2578  MISS:     125584
cpu0_STLB RFO       ACCESS:       6627  HIT:         10  MISS:       6617
cpu0_STLB PREFETCH  ACCESS:          0  HIT:          0  MISS:          0
cpu0_STLB WRITEBACK ACCESS:          0  HIT:          0  MISS:          0
cpu0_STLB TRANSLATION ACCESS:          0  HIT:          0  MISS:          0
cpu0_STLB PREFETCH  REQUESTED:          0  ISSUED:          0  USEFUL:          0  USELESS:          0
cpu0_STLB AVERAGE MISS LATENCY: 141.148 cycles
cpu0_L1D TOTAL     ACCESS:   13087235  HIT:   11342298  MISS:    1744937
cpu0_L1D LOAD      ACCESS:    6799498  HIT:    5478245  MISS:    1321253
cpu0_L1D RFO       ACCESS:    6156797  HIT:    5733497  MISS:     423300
cpu0_L1D PREFETCH  ACCESS:          0  HIT:          0  MISS:          0
cpu0_L1D WRITEBACK ACCESS:          0  HIT:          0  MISS:          0
cpu0_L1D TRANSLATION ACCESS:     130940  HIT:     130556  MISS:        384
cpu0_L1D PREFETCH  REQUESTED:          0  ISSUED:          0  USEFUL:          0  USELESS:          0
cpu0_L1D AVERAGE MISS LATENCY: 418.167 cycles
cpu0_L2C TOTAL     ACCESS:    2446394  HIT:     701423  MISS:    1744971
cpu0_L2C LOAD      ACCESS:    1321300  HIT:          0  MISS:    1321300
cpu0_L2C RFO       ACCESS:     423300  HIT:          0  MISS:     423300
cpu0_L2C PREFETCH  ACCESS:          0  HIT:          0  MISS:          0
cpu0_L2C WRITEBACK ACCESS:     701410  HIT:     701404  MISS:          6
cpu0_L2C TRANSLATION ACCESS:        384  HIT:         19  MISS:        365
cpu0_L2C PREFETCH  REQUESTED:          0  ISSUED:          0  USEFUL:          0  USELESS:          0
cpu0_L2C AVERAGE MISS LATENCY: 407.098 cycles
LLC TOTAL     ACCESS:    2446271  HIT:      96054  MISS:    2350217
LLC LOAD      ACCESS:    1321300  HIT:        319  MISS:    1320981
LLC RFO       ACCESS:     423300  HIT:        166  MISS:     423134
LLC PREFETCH  ACCESS:          0  HIT:          0  MISS:          0
LLC WRITEBACK ACCESS:     701306  HIT:      95271  MISS:     606035
LLC TRANSLATION ACCESS:        365  HIT:        298  MISS:         67
LLC PREFETCH  REQUESTED:          0  ISSUED:          0  USEFUL:          0  USELESS:          0
LLC AVERAGE MISS LATENCY: 286.667 cycles
Insertion Distribution: 
	LOAD 0 0 628002 833181 
	RFO 0 0 63571 359565 
	PREF 0 0 0 0 
	WRITEBACK 0 0 0 610042 
	 0 0 30 53 
Total Prefetch Downgrades: 0

DRAM Statistics
 CHANNEL 0
 RQ ROW_BUFFER_HIT:     183249  ROW_BUFFER_MISS:    1560929
 DBUS AVG_CONGESTED_CYCLE:    3.95674
 WQ ROW_BUFFER_HIT:      82301  ROW_BUFFER_MISS:     615128  FULL:          0


CPU 0 Branch Prediction Accuracy: 77.9348% MPKI: 4.47835 Average ROB Occupancy at Mispredict: 303.178
Branch type MPKI
BRANCH_DIRECT_JUMP: 5e-05
BRANCH_INDIRECT: 0
BRANCH_CONDITIONAL: 4.47814
BRANCH_DIRECT_CALL: 8e-05
BRANCH_INDIRECT_CALL: 0
BRANCH_RETURN: 8e-05

