
*** ChampSim Multicore Out-of-Order Simulator ***

Warmup Instructions: 10000000
Simulation Instructions: 100000000
Number of CPUs: 1
Off-chip DRAM Size: 4 GiB Channels: 1 Width: 64-bit Data Rate: 3200 MT/s

VirtualMemory physical capacity: 8588881920 num_ppages: 2096895
VirtualMemory page size: 4096 log2_page_size: 12

CPU 0 runs /datasets/cs240c-wi22-a00-public/data/Assignment2/sphinx3_883B.trace.xz
CPU 0 Bimodal branch predictor
Basic BTB sets: 1024 ways: 8 indirect buffer size: 4096 RAS size: 64
Initialize SRRIP state
Heartbeat CPU 0 instructions: 10000003 cycles: 2628882 heartbeat IPC: 3.8039 cumulative IPC: 3.8039 (Simulation time: 0 hr 0 min 32 sec) 

Warmup complete CPU 0 instructions: 10000003 cycles: 2628882 (Simulation time: 0 hr 0 min 32 sec) 

Heartbeat CPU 0 instructions: 20000000 cycles: 14587777 heartbeat IPC: 0.836197 cumulative IPC: 0.836197 (Simulation time: 0 hr 1 min 35 sec) 
Heartbeat CPU 0 instructions: 30000001 cycles: 26977541 heartbeat IPC: 0.807118 cumulative IPC: 0.8214 (Simulation time: 0 hr 2 min 39 sec) 
Heartbeat CPU 0 instructions: 40000004 cycles: 38790990 heartbeat IPC: 0.846493 cumulative IPC: 0.829598 (Simulation time: 0 hr 3 min 41 sec) 
Heartbeat CPU 0 instructions: 50000003 cycles: 50350991 heartbeat IPC: 0.865052 cumulative IPC: 0.838186 (Simulation time: 0 hr 4 min 43 sec) 
Heartbeat CPU 0 instructions: 60000000 cycles: 60585919 heartbeat IPC: 0.977046 cumulative IPC: 0.862708 (Simulation time: 0 hr 5 min 42 sec) 
Heartbeat CPU 0 instructions: 70000001 cycles: 69544087 heartbeat IPC: 1.1163 cumulative IPC: 0.896657 (Simulation time: 0 hr 6 min 35 sec) 
Heartbeat CPU 0 instructions: 80000000 cycles: 79802802 heartbeat IPC: 0.974781 cumulative IPC: 0.907042 (Simulation time: 0 hr 7 min 33 sec) 
Heartbeat CPU 0 instructions: 90000002 cycles: 88893192 heartbeat IPC: 1.10006 cumulative IPC: 0.927382 (Simulation time: 0 hr 8 min 27 sec) 
Heartbeat CPU 0 instructions: 100000000 cycles: 96990122 heartbeat IPC: 1.23504 cumulative IPC: 0.953781 (Simulation time: 0 hr 9 min 17 sec) 
Heartbeat CPU 0 instructions: 110000003 cycles: 107214611 heartbeat IPC: 0.978044 cumulative IPC: 0.956153 (Simulation time: 0 hr 10 min 14 sec) 
Finished CPU 0 instructions: 100000000 cycles: 104585729 cumulative IPC: 0.956153 (Simulation time: 0 hr 10 min 14 sec) 

ChampSim completed all CPUs

Region of Interest Statistics

CPU 0 cumulative IPC: 0.956153 instructions: 100000000 cycles: 104585729
cpu0_DTLB TOTAL     ACCESS:   16792843  HIT:   16632876  MISS:     159967
cpu0_DTLB LOAD      ACCESS:   15451254  HIT:   15299514  MISS:     151740
cpu0_DTLB RFO       ACCESS:    1341589  HIT:    1333362  MISS:       8227
cpu0_DTLB PREFETCH  ACCESS:          0  HIT:          0  MISS:          0
cpu0_DTLB WRITEBACK ACCESS:          0  HIT:          0  MISS:          0
cpu0_DTLB TRANSLATION ACCESS:          0  HIT:          0  MISS:          0
cpu0_DTLB PREFETCH  REQUESTED:          0  ISSUED:          0  USEFUL:          0  USELESS:          0
cpu0_DTLB AVERAGE MISS LATENCY: 12.786 cycles
cpu0_ITLB TOTAL     ACCESS:    9487505  HIT:    9487440  MISS:         65
cpu0_ITLB LOAD      ACCESS:    9487505  HIT:    9487440  MISS:         65
cpu0_ITLB RFO       ACCESS:          0  HIT:          0  MISS:          0
cpu0_ITLB PREFETCH  ACCESS:          0  HIT:          0  MISS:          0
cpu0_ITLB WRITEBACK ACCESS:          0  HIT:          0  MISS:          0
cpu0_ITLB TRANSLATION ACCESS:          0  HIT:          0  MISS:          0
cpu0_ITLB PREFETCH  REQUESTED:          0  ISSUED:          0  USEFUL:          0  USELESS:          0
cpu0_ITLB AVERAGE MISS LATENCY: 148.4 cycles
cpu0_L1I TOTAL     ACCESS:     192482  HIT:     191102  MISS:       1380
cpu0_L1I LOAD      ACCESS:     192482  HIT:     191102  MISS:       1380
cpu0_L1I RFO       ACCESS:          0  HIT:          0  MISS:          0
cpu0_L1I PREFETCH  ACCESS:          0  HIT:          0  MISS:          0
cpu0_L1I WRITEBACK ACCESS:          0  HIT:          0  MISS:          0
cpu0_L1I TRANSLATION ACCESS:          0  HIT:          0  MISS:          0
cpu0_L1I PREFETCH  REQUESTED:          0  ISSUED:          0  USEFUL:          0  USELESS:          0
cpu0_L1I AVERAGE MISS LATENCY: 204.091 cycles
cpu0_STLB TOTAL     ACCESS:     160032  HIT:      99136  MISS:      60896
cpu0_STLB LOAD      ACCESS:     151805  HIT:      92130  MISS:      59675
cpu0_STLB RFO       ACCESS:       8227  HIT:       7006  MISS:       1221
cpu0_STLB PREFETCH  ACCESS:          0  HIT:          0  MISS:          0
cpu0_STLB WRITEBACK ACCESS:          0  HIT:          0  MISS:          0
cpu0_STLB TRANSLATION ACCESS:          0  HIT:          0  MISS:          0
cpu0_STLB PREFETCH  REQUESTED:          0  ISSUED:          0  USEFUL:          0  USELESS:          0
cpu0_STLB AVERAGE MISS LATENCY: 9.96939 cycles
cpu0_L1D TOTAL     ACCESS:   12787265  HIT:   11037966  MISS:    1749299
cpu0_L1D LOAD      ACCESS:   10545703  HIT:    8911329  MISS:    1634374
cpu0_L1D RFO       ACCESS:    2183412  HIT:    2069280  MISS:     114132
cpu0_L1D PREFETCH  ACCESS:          0  HIT:          0  MISS:          0
cpu0_L1D WRITEBACK ACCESS:          0  HIT:          0  MISS:          0
cpu0_L1D TRANSLATION ACCESS:      58150  HIT:      57357  MISS:        793
cpu0_L1D PREFETCH  REQUESTED:          0  ISSUED:          0  USEFUL:          0  USELESS:          0
cpu0_L1D AVERAGE MISS LATENCY: 112.547 cycles
cpu0_L2C TOTAL     ACCESS:    1908268  HIT:     517698  MISS:    1390570
cpu0_L2C LOAD      ACCESS:    1635751  HIT:     346943  MISS:    1288808
cpu0_L2C RFO       ACCESS:     114128  HIT:      12984  MISS:     101144
cpu0_L2C PREFETCH  ACCESS:          0  HIT:          0  MISS:          0
cpu0_L2C WRITEBACK ACCESS:     157596  HIT:     157299  MISS:        297
cpu0_L2C TRANSLATION ACCESS:        793  HIT:        472  MISS:        321
cpu0_L2C PREFETCH  REQUESTED:          0  ISSUED:          0  USEFUL:          0  USELESS:          0
cpu0_L2C AVERAGE MISS LATENCY: 127.877 cycles
LLC TOTAL     ACCESS:    1524820  HIT:     771250  MISS:     753570
LLC LOAD      ACCESS:    1288808  HIT:     595968  MISS:     692840
LLC RFO       ACCESS:     101144  HIT:      71639  MISS:      29505
LLC PREFETCH  ACCESS:          0  HIT:          0  MISS:          0
LLC WRITEBACK ACCESS:     134547  HIT:     103335  MISS:      31212
LLC TRANSLATION ACCESS:        321  HIT:        308  MISS:         13
LLC PREFETCH  REQUESTED:          0  ISSUED:          0  USEFUL:          0  USELESS:          0
LLC AVERAGE MISS LATENCY: 197.196 cycles
Insertion Distribution: 
	LOAD 8245 0 0 0 0 0 82031 720297 
	RFO 1195 0 0 0 0 0 4866 28966 
	PREF 0 0 0 0 0 0 0 0 
	WRITEBACK 0 0 0 0 0 0 0 31526 
	 2 0 0 0 0 0 18 8 
Total Prefetch Downgrades: 0

DRAM Statistics
 CHANNEL 0
 RQ ROW_BUFFER_HIT:      58926  ROW_BUFFER_MISS:     663203
 DBUS AVG_CONGESTED_CYCLE:    3.80282
 WQ ROW_BUFFER_HIT:      10256  ROW_BUFFER_MISS:      25994  FULL:      23670


CPU 0 Branch Prediction Accuracy: 91.645% MPKI: 7.87682 Average ROB Occupancy at Mispredict: 153.967
Branch type MPKI
BRANCH_DIRECT_JUMP: 0.0017
BRANCH_INDIRECT: 0.00111
BRANCH_CONDITIONAL: 7.87013
BRANCH_DIRECT_CALL: 0.00166
BRANCH_INDIRECT_CALL: 0.0005
BRANCH_RETURN: 0.00172

