
*** ChampSim Multicore Out-of-Order Simulator ***

Warmup Instructions: 10000000
Simulation Instructions: 100000000
Number of CPUs: 1
Off-chip DRAM Size: 4 GiB Channels: 1 Width: 64-bit Data Rate: 3200 MT/s

VirtualMemory physical capacity: 8588881920 num_ppages: 2096895
VirtualMemory page size: 4096 log2_page_size: 12

CPU 0 runs /datasets/cs240c-wi22-a00-public/data/Assignment2/soplex_205B.trace.xz
CPU 0 Bimodal branch predictor
Basic BTB sets: 1024 ways: 8 indirect buffer size: 4096 RAS size: 64
Initialize SRRIP state
Heartbeat CPU 0 instructions: 10000000 cycles: 2865142 heartbeat IPC: 3.49023 cumulative IPC: 3.49023 (Simulation time: 0 hr 0 min 34 sec) 

Warmup complete CPU 0 instructions: 10000004 cycles: 2865143 (Simulation time: 0 hr 0 min 34 sec) 

Heartbeat CPU 0 instructions: 20000004 cycles: 48069407 heartbeat IPC: 0.221218 cumulative IPC: 0.221218 (Simulation time: 0 hr 3 min 43 sec) 
Heartbeat CPU 0 instructions: 30000004 cycles: 87694223 heartbeat IPC: 0.252367 cumulative IPC: 0.235768 (Simulation time: 0 hr 5 min 28 sec) 
Heartbeat CPU 0 instructions: 40000004 cycles: 117354795 heartbeat IPC: 0.337148 cumulative IPC: 0.262032 (Simulation time: 0 hr 7 min 19 sec) 
Heartbeat CPU 0 instructions: 50000001 cycles: 148248883 heartbeat IPC: 0.323686 cumulative IPC: 0.275134 (Simulation time: 0 hr 9 min 6 sec) 
Heartbeat CPU 0 instructions: 60000000 cycles: 175720571 heartbeat IPC: 0.364011 cumulative IPC: 0.289259 (Simulation time: 0 hr 10 min 43 sec) 
Heartbeat CPU 0 instructions: 70000000 cycles: 206003344 heartbeat IPC: 0.330221 cumulative IPC: 0.295365 (Simulation time: 0 hr 12 min 35 sec) 
Heartbeat CPU 0 instructions: 80000003 cycles: 234530386 heartbeat IPC: 0.350545 cumulative IPC: 0.30216 (Simulation time: 0 hr 14 min 10 sec) 
Heartbeat CPU 0 instructions: 90000000 cycles: 266575743 heartbeat IPC: 0.312058 cumulative IPC: 0.303363 (Simulation time: 0 hr 16 min 4 sec) 
Heartbeat CPU 0 instructions: 100000002 cycles: 293592372 heartbeat IPC: 0.370142 cumulative IPC: 0.309569 (Simulation time: 0 hr 17 min 35 sec) 
Heartbeat CPU 0 instructions: 110000000 cycles: 344953393 heartbeat IPC: 0.1947 cumulative IPC: 0.292322 (Simulation time: 0 hr 20 min 23 sec) 
Finished CPU 0 instructions: 100000001 cycles: 342088251 cumulative IPC: 0.292322 (Simulation time: 0 hr 20 min 23 sec) 

ChampSim completed all CPUs

Region of Interest Statistics

CPU 0 cumulative IPC: 0.292322 instructions: 100000001 cycles: 342088251
cpu0_DTLB TOTAL     ACCESS:   22278921  HIT:   21316511  MISS:     962410
cpu0_DTLB LOAD      ACCESS:   16539982  HIT:   15798554  MISS:     741428
cpu0_DTLB RFO       ACCESS:    5738939  HIT:    5517957  MISS:     220982
cpu0_DTLB PREFETCH  ACCESS:          0  HIT:          0  MISS:          0
cpu0_DTLB WRITEBACK ACCESS:          0  HIT:          0  MISS:          0
cpu0_DTLB TRANSLATION ACCESS:          0  HIT:          0  MISS:          0
cpu0_DTLB PREFETCH  REQUESTED:          0  ISSUED:          0  USEFUL:          0  USELESS:          0
cpu0_DTLB AVERAGE MISS LATENCY: 15.5341 cycles
cpu0_ITLB TOTAL     ACCESS:    7947217  HIT:    7947200  MISS:         17
cpu0_ITLB LOAD      ACCESS:    7947217  HIT:    7947200  MISS:         17
cpu0_ITLB RFO       ACCESS:          0  HIT:          0  MISS:          0
cpu0_ITLB PREFETCH  ACCESS:          0  HIT:          0  MISS:          0
cpu0_ITLB WRITEBACK ACCESS:          0  HIT:          0  MISS:          0
cpu0_ITLB TRANSLATION ACCESS:          0  HIT:          0  MISS:          0
cpu0_ITLB PREFETCH  REQUESTED:          0  ISSUED:          0  USEFUL:          0  USELESS:          0
cpu0_ITLB AVERAGE MISS LATENCY: 482.882 cycles
cpu0_L1I TOTAL     ACCESS:     824847  HIT:     824074  MISS:        773
cpu0_L1I LOAD      ACCESS:     824847  HIT:     824074  MISS:        773
cpu0_L1I RFO       ACCESS:          0  HIT:          0  MISS:          0
cpu0_L1I PREFETCH  ACCESS:          0  HIT:          0  MISS:          0
cpu0_L1I WRITEBACK ACCESS:          0  HIT:          0  MISS:          0
cpu0_L1I TRANSLATION ACCESS:          0  HIT:          0  MISS:          0
cpu0_L1I PREFETCH  REQUESTED:          0  ISSUED:          0  USEFUL:          0  USELESS:          0
cpu0_L1I AVERAGE MISS LATENCY: 357 cycles
cpu0_STLB TOTAL     ACCESS:     962427  HIT:     806868  MISS:     155559
cpu0_STLB LOAD      ACCESS:     741445  HIT:     596711  MISS:     144734
cpu0_STLB RFO       ACCESS:     220982  HIT:     210157  MISS:      10825
cpu0_STLB PREFETCH  ACCESS:          0  HIT:          0  MISS:          0
cpu0_STLB WRITEBACK ACCESS:          0  HIT:          0  MISS:          0
cpu0_STLB TRANSLATION ACCESS:          0  HIT:          0  MISS:          0
cpu0_STLB PREFETCH  REQUESTED:          0  ISSUED:          0  USEFUL:          0  USELESS:          0
cpu0_STLB AVERAGE MISS LATENCY: 39.5487 cycles
cpu0_L1D TOTAL     ACCESS:   19198050  HIT:   13407578  MISS:    5790472
cpu0_L1D LOAD      ACCESS:   12660933  HIT:    7826424  MISS:    4834509
cpu0_L1D RFO       ACCESS:    6385434  HIT:    5435111  MISS:     950323
cpu0_L1D PREFETCH  ACCESS:          0  HIT:          0  MISS:          0
cpu0_L1D WRITEBACK ACCESS:          0  HIT:          0  MISS:          0
cpu0_L1D TRANSLATION ACCESS:     151683  HIT:     146043  MISS:       5640
cpu0_L1D PREFETCH  REQUESTED:          0  ISSUED:          0  USEFUL:          0  USELESS:          0
cpu0_L1D AVERAGE MISS LATENCY: 236.897 cycles
cpu0_L2C TOTAL     ACCESS:    8360649  HIT:    3854966  MISS:    4505683
cpu0_L2C LOAD      ACCESS:    4834858  HIT:    1131308  MISS:    3703550
cpu0_L2C RFO       ACCESS:     950241  HIT:     149002  MISS:     801239
cpu0_L2C PREFETCH  ACCESS:          0  HIT:          0  MISS:          0
cpu0_L2C WRITEBACK ACCESS:    2569910  HIT:    2569837  MISS:         73
cpu0_L2C TRANSLATION ACCESS:       5640  HIT:       4819  MISS:        821
cpu0_L2C PREFETCH  REQUESTED:          0  ISSUED:          0  USEFUL:          0  USELESS:          0
cpu0_L2C AVERAGE MISS LATENCY: 290.157 cycles
LLC TOTAL     ACCESS:    6405701  HIT:    2780584  MISS:    3625117
LLC LOAD      ACCESS:    3703523  HIT:    1348706  MISS:    2354817
LLC RFO       ACCESS:     801228  HIT:     262946  MISS:     538282
LLC PREFETCH  ACCESS:          0  HIT:          0  MISS:          0
LLC WRITEBACK ACCESS:    1900129  HIT:    1168366  MISS:     731763
LLC TRANSLATION ACCESS:        821  HIT:        566  MISS:        255
LLC PREFETCH  REQUESTED:          0  ISSUED:          0  USEFUL:          0  USELESS:          0
LLC AVERAGE MISS LATENCY: 334.091 cycles
Insertion Distribution: 
	LOAD 427176 0 0 0 0 0 232662 2018077 
	RFO 80096 0 0 0 0 0 57557 441556 
	PREF 0 0 0 0 0 0 0 0 
	WRITEBACK 0 0 0 0 0 0 0 827506 
	 8 0 0 0 0 0 137 145 
Total Prefetch Downgrades: 0

DRAM Statistics
 CHANNEL 0
 RQ ROW_BUFFER_HIT:     324308  ROW_BUFFER_MISS:    2566909
 DBUS AVG_CONGESTED_CYCLE:    3.95896
 WQ ROW_BUFFER_HIT:      57691  ROW_BUFFER_MISS:    1070874  FULL:     495734


CPU 0 Branch Prediction Accuracy: 93.3985% MPKI: 13.5305 Average ROB Occupancy at Mispredict: 49.1351
Branch type MPKI
BRANCH_DIRECT_JUMP: 0.00081
BRANCH_INDIRECT: 0.00022
BRANCH_CONDITIONAL: 13.5274
BRANCH_DIRECT_CALL: 0.00058
BRANCH_INDIRECT_CALL: 0.00056
BRANCH_RETURN: 0.00094

