
*** ChampSim Multicore Out-of-Order Simulator ***

Warmup Instructions: 10000000
Simulation Instructions: 100000000
Number of CPUs: 1
Off-chip DRAM Size: 4 GiB Channels: 1 Width: 64-bit Data Rate: 3200 MT/s

VirtualMemory physical capacity: 8588881920 num_ppages: 2096895
VirtualMemory page size: 4096 log2_page_size: 12

CPU 0 runs /datasets/cs240c-wi22-a00-public/data/Assignment2/cactusADM_1495B.trace.xz
CPU 0 Bimodal branch predictor
Basic BTB sets: 1024 ways: 8 indirect buffer size: 4096 RAS size: 64
Initialize SRRIP state
Heartbeat CPU 0 instructions: 10000001 cycles: 3702092 heartbeat IPC: 2.70118 cumulative IPC: 2.70118 (Simulation time: 0 hr 1 min 1 sec) 

Warmup complete CPU 0 instructions: 10000001 cycles: 3702092 (Simulation time: 0 hr 1 min 1 sec) 

Heartbeat CPU 0 instructions: 20000001 cycles: 11207054 heartbeat IPC: 1.33245 cumulative IPC: 1.33245 (Simulation time: 0 hr 2 min 38 sec) 
Heartbeat CPU 0 instructions: 30000003 cycles: 20050713 heartbeat IPC: 1.13075 cumulative IPC: 1.22334 (Simulation time: 0 hr 4 min 19 sec) 
Heartbeat CPU 0 instructions: 40000003 cycles: 29356230 heartbeat IPC: 1.07463 cumulative IPC: 1.1694 (Simulation time: 0 hr 6 min 3 sec) 
Heartbeat CPU 0 instructions: 50000000 cycles: 38321766 heartbeat IPC: 1.11538 cumulative IPC: 1.15541 (Simulation time: 0 hr 7 min 48 sec) 
Heartbeat CPU 0 instructions: 60000000 cycles: 44943768 heartbeat IPC: 1.51012 cumulative IPC: 1.21237 (Simulation time: 0 hr 9 min 18 sec) 
Heartbeat CPU 0 instructions: 70000000 cycles: 52298417 heartbeat IPC: 1.35968 cumulative IPC: 1.23466 (Simulation time: 0 hr 10 min 51 sec) 
Heartbeat CPU 0 instructions: 80000001 cycles: 60918575 heartbeat IPC: 1.16007 cumulative IPC: 1.22342 (Simulation time: 0 hr 12 min 34 sec) 
Heartbeat CPU 0 instructions: 90000002 cycles: 69280808 heartbeat IPC: 1.19585 cumulative IPC: 1.21991 (Simulation time: 0 hr 14 min 13 sec) 
Heartbeat CPU 0 instructions: 100000003 cycles: 77450151 heartbeat IPC: 1.22409 cumulative IPC: 1.22037 (Simulation time: 0 hr 15 min 51 sec) 
Heartbeat CPU 0 instructions: 110000004 cycles: 83151983 heartbeat IPC: 1.75382 cumulative IPC: 1.25865 (Simulation time: 0 hr 17 min 15 sec) 
Finished CPU 0 instructions: 100000003 cycles: 79449891 cumulative IPC: 1.25866 (Simulation time: 0 hr 17 min 15 sec) 

ChampSim completed all CPUs

Region of Interest Statistics

CPU 0 cumulative IPC: 1.25866 instructions: 100000003 cycles: 79449891
cpu0_DTLB TOTAL     ACCESS:   21396915  HIT:   19623437  MISS:    1773478
cpu0_DTLB LOAD      ACCESS:   17595645  HIT:   16385990  MISS:    1209655
cpu0_DTLB RFO       ACCESS:    3801270  HIT:    3237447  MISS:     563823
cpu0_DTLB PREFETCH  ACCESS:          0  HIT:          0  MISS:          0
cpu0_DTLB WRITEBACK ACCESS:          0  HIT:          0  MISS:          0
cpu0_DTLB TRANSLATION ACCESS:          0  HIT:          0  MISS:          0
cpu0_DTLB PREFETCH  REQUESTED:          0  ISSUED:          0  USEFUL:          0  USELESS:          0
cpu0_DTLB AVERAGE MISS LATENCY: 17.091 cycles
cpu0_ITLB TOTAL     ACCESS:    1620348  HIT:    1620348  MISS:          0
cpu0_ITLB LOAD      ACCESS:    1620348  HIT:    1620348  MISS:          0
cpu0_ITLB RFO       ACCESS:          0  HIT:          0  MISS:          0
cpu0_ITLB PREFETCH  ACCESS:          0  HIT:          0  MISS:          0
cpu0_ITLB WRITEBACK ACCESS:          0  HIT:          0  MISS:          0
cpu0_ITLB TRANSLATION ACCESS:          0  HIT:          0  MISS:          0
cpu0_ITLB PREFETCH  REQUESTED:          0  ISSUED:          0  USEFUL:          0  USELESS:          0
cpu0_ITLB AVERAGE MISS LATENCY: -nan cycles
cpu0_L1I TOTAL     ACCESS:    8421035  HIT:    8421035  MISS:          0
cpu0_L1I LOAD      ACCESS:    8421035  HIT:    8421035  MISS:          0
cpu0_L1I RFO       ACCESS:          0  HIT:          0  MISS:          0
cpu0_L1I PREFETCH  ACCESS:          0  HIT:          0  MISS:          0
cpu0_L1I WRITEBACK ACCESS:          0  HIT:          0  MISS:          0
cpu0_L1I TRANSLATION ACCESS:          0  HIT:          0  MISS:          0
cpu0_L1I PREFETCH  REQUESTED:          0  ISSUED:          0  USEFUL:          0  USELESS:          0
cpu0_L1I AVERAGE MISS LATENCY: -nan cycles
cpu0_STLB TOTAL     ACCESS:    1773478  HIT:     909704  MISS:     863774
cpu0_STLB LOAD      ACCESS:    1209655  HIT:     651079  MISS:     558576
cpu0_STLB RFO       ACCESS:     563823  HIT:     258625  MISS:     305198
cpu0_STLB PREFETCH  ACCESS:          0  HIT:          0  MISS:          0
cpu0_STLB WRITEBACK ACCESS:          0  HIT:          0  MISS:          0
cpu0_STLB TRANSLATION ACCESS:          0  HIT:          0  MISS:          0
cpu0_STLB PREFETCH  REQUESTED:          0  ISSUED:          0  USEFUL:          0  USELESS:          0
cpu0_STLB AVERAGE MISS LATENCY: 16.4875 cycles
cpu0_L1D TOTAL     ACCESS:   37448007  HIT:   36159865  MISS:    1288142
cpu0_L1D LOAD      ACCESS:   25672945  HIT:   24636950  MISS:    1035995
cpu0_L1D RFO       ACCESS:   10911949  HIT:   10666717  MISS:     245232
cpu0_L1D PREFETCH  ACCESS:          0  HIT:          0  MISS:          0
cpu0_L1D WRITEBACK ACCESS:          0  HIT:          0  MISS:          0
cpu0_L1D TRANSLATION ACCESS:     863113  HIT:     856198  MISS:       6915
cpu0_L1D PREFETCH  REQUESTED:          0  ISSUED:          0  USEFUL:          0  USELESS:          0
cpu0_L1D AVERAGE MISS LATENCY: 286.774 cycles
cpu0_L2C TOTAL     ACCESS:    1536924  HIT:     676765  MISS:     860159
cpu0_L2C LOAD      ACCESS:    1035995  HIT:     421573  MISS:     614422
cpu0_L2C RFO       ACCESS:     245232  HIT:          0  MISS:     245232
cpu0_L2C PREFETCH  ACCESS:          0  HIT:          0  MISS:          0
cpu0_L2C WRITEBACK ACCESS:     248782  HIT:     248594  MISS:        188
cpu0_L2C TRANSLATION ACCESS:       6915  HIT:       6598  MISS:        317
cpu0_L2C PREFETCH  REQUESTED:          0  ISSUED:          0  USEFUL:          0  USELESS:          0
cpu0_L2C AVERAGE MISS LATENCY: 412.97 cycles
LLC TOTAL     ACCESS:    1105579  HIT:     323887  MISS:     781692
LLC LOAD      ACCESS:     614422  HIT:     187845  MISS:     426577
LLC RFO       ACCESS:     245232  HIT:      59493  MISS:     185739
LLC PREFETCH  ACCESS:          0  HIT:          0  MISS:          0
LLC WRITEBACK ACCESS:     245608  HIT:      76497  MISS:     169111
LLC TRANSLATION ACCESS:        317  HIT:         52  MISS:        265
LLC PREFETCH  REQUESTED:          0  ISSUED:          0  USEFUL:          0  USELESS:          0
LLC AVERAGE MISS LATENCY: 431.32 cycles
Insertion Distribution: 
	LOAD 0 0 78042 415905 
	RFO 0 0 35016 181380 
	PREF 0 0 0 0 
	WRITEBACK 0 0 0 178946 
	 0 0 63 252 
Total Prefetch Downgrades: 0

DRAM Statistics
 CHANNEL 0
 RQ ROW_BUFFER_HIT:       6093  ROW_BUFFER_MISS:     606488
 DBUS AVG_CONGESTED_CYCLE:    3.97527
 WQ ROW_BUFFER_HIT:      10668  ROW_BUFFER_MISS:     175533  FULL:        197


CPU 0 Branch Prediction Accuracy: 97.8411% MPKI: 0.04284 Average ROB Occupancy at Mispredict: 285.436
Branch type MPKI
BRANCH_DIRECT_JUMP: 0
BRANCH_INDIRECT: 0
BRANCH_CONDITIONAL: 0.04284
BRANCH_DIRECT_CALL: 0
BRANCH_INDIRECT_CALL: 0
BRANCH_RETURN: 0

