
*** ChampSim Multicore Out-of-Order Simulator ***

Warmup Instructions: 10000000
Simulation Instructions: 100000000
Number of CPUs: 1
Off-chip DRAM Size: 4 GiB Channels: 1 Width: 64-bit Data Rate: 3200 MT/s

VirtualMemory physical capacity: 8588881920 num_ppages: 2096895
VirtualMemory page size: 4096 log2_page_size: 12

CPU 0 runs /datasets/cs240c-wi22-a00-public/data/Assignment2/leslie3d_1116B.trace.xz
CPU 0 Bimodal branch predictor
Basic BTB sets: 1024 ways: 8 indirect buffer size: 4096 RAS size: 64
Initialize SRRIP state
Heartbeat CPU 0 instructions: 10000000 cycles: 3692433 heartbeat IPC: 2.70824 cumulative IPC: 2.70824 (Simulation time: 0 hr 0 min 52 sec) 

Warmup complete CPU 0 instructions: 10000005 cycles: 3692434 (Simulation time: 0 hr 0 min 52 sec) 

Heartbeat CPU 0 instructions: 20000000 cycles: 13794293 heartbeat IPC: 0.989917 cumulative IPC: 0.989916 (Simulation time: 0 hr 2 min 15 sec) 
Heartbeat CPU 0 instructions: 30000004 cycles: 23927246 heartbeat IPC: 0.98688 cumulative IPC: 0.988396 (Simulation time: 0 hr 3 min 36 sec) 
Heartbeat CPU 0 instructions: 40000003 cycles: 36565076 heartbeat IPC: 0.791275 cumulative IPC: 0.912613 (Simulation time: 0 hr 5 min 8 sec) 
Heartbeat CPU 0 instructions: 50000000 cycles: 57974288 heartbeat IPC: 0.467089 cumulative IPC: 0.736894 (Simulation time: 0 hr 7 min 15 sec) 
Heartbeat CPU 0 instructions: 60000001 cycles: 111468501 heartbeat IPC: 0.186936 cumulative IPC: 0.463925 (Simulation time: 0 hr 11 min 41 sec) 
Heartbeat CPU 0 instructions: 70000000 cycles: 126034019 heartbeat IPC: 0.686553 cumulative IPC: 0.49043 (Simulation time: 0 hr 13 min 25 sec) 
Heartbeat CPU 0 instructions: 80000001 cycles: 139121775 heartbeat IPC: 0.764073 cumulative IPC: 0.516875 (Simulation time: 0 hr 15 min 3 sec) 
Heartbeat CPU 0 instructions: 90000004 cycles: 152472077 heartbeat IPC: 0.749047 cumulative IPC: 0.537708 (Simulation time: 0 hr 16 min 45 sec) 
Heartbeat CPU 0 instructions: 100000002 cycles: 165778534 heartbeat IPC: 0.751515 cumulative IPC: 0.55526 (Simulation time: 0 hr 18 min 24 sec) 
Heartbeat CPU 0 instructions: 110000001 cycles: 188117973 heartbeat IPC: 0.447639 cumulative IPC: 0.542224 (Simulation time: 0 hr 20 min 37 sec) 
Finished CPU 0 instructions: 100000000 cycles: 184425541 cumulative IPC: 0.542224 (Simulation time: 0 hr 20 min 37 sec) 

ChampSim completed all CPUs

Region of Interest Statistics

CPU 0 cumulative IPC: 0.542224 instructions: 100000000 cycles: 184425541
cpu0_DTLB TOTAL     ACCESS:   25754216  HIT:   25688458  MISS:      65758
cpu0_DTLB LOAD      ACCESS:   21147097  HIT:   21095388  MISS:      51709
cpu0_DTLB RFO       ACCESS:    4607119  HIT:    4593070  MISS:      14049
cpu0_DTLB PREFETCH  ACCESS:          0  HIT:          0  MISS:          0
cpu0_DTLB WRITEBACK ACCESS:          0  HIT:          0  MISS:          0
cpu0_DTLB TRANSLATION ACCESS:          0  HIT:          0  MISS:          0
cpu0_DTLB PREFETCH  REQUESTED:          0  ISSUED:          0  USEFUL:          0  USELESS:          0
cpu0_DTLB AVERAGE MISS LATENCY: 84.275 cycles
cpu0_ITLB TOTAL     ACCESS:    2890448  HIT:    2890430  MISS:         18
cpu0_ITLB LOAD      ACCESS:    2890448  HIT:    2890430  MISS:         18
cpu0_ITLB RFO       ACCESS:          0  HIT:          0  MISS:          0
cpu0_ITLB PREFETCH  ACCESS:          0  HIT:          0  MISS:          0
cpu0_ITLB WRITEBACK ACCESS:          0  HIT:          0  MISS:          0
cpu0_ITLB TRANSLATION ACCESS:          0  HIT:          0  MISS:          0
cpu0_ITLB PREFETCH  REQUESTED:          0  ISSUED:          0  USEFUL:          0  USELESS:          0
cpu0_ITLB AVERAGE MISS LATENCY: 464.944 cycles
cpu0_L1I TOTAL     ACCESS:    1782504  HIT:    1782032  MISS:        472
cpu0_L1I LOAD      ACCESS:    1782504  HIT:    1782032  MISS:        472
cpu0_L1I RFO       ACCESS:          0  HIT:          0  MISS:          0
cpu0_L1I PREFETCH  ACCESS:          0  HIT:          0  MISS:          0
cpu0_L1I WRITEBACK ACCESS:          0  HIT:          0  MISS:          0
cpu0_L1I TRANSLATION ACCESS:          0  HIT:          0  MISS:          0
cpu0_L1I PREFETCH  REQUESTED:          0  ISSUED:          0  USEFUL:          0  USELESS:          0
cpu0_L1I AVERAGE MISS LATENCY: 349.511 cycles
cpu0_STLB TOTAL     ACCESS:      65776  HIT:      34152  MISS:      31624
cpu0_STLB LOAD      ACCESS:      51727  HIT:      28261  MISS:      23466
cpu0_STLB RFO       ACCESS:      14049  HIT:       5891  MISS:       8158
cpu0_STLB PREFETCH  ACCESS:          0  HIT:          0  MISS:          0
cpu0_STLB WRITEBACK ACCESS:          0  HIT:          0  MISS:          0
cpu0_STLB TRANSLATION ACCESS:          0  HIT:          0  MISS:          0
cpu0_STLB PREFETCH  REQUESTED:          0  ISSUED:          0  USEFUL:          0  USELESS:          0
cpu0_STLB AVERAGE MISS LATENCY: 156.77 cycles
cpu0_L1D TOTAL     ACCESS:   24507592  HIT:   21097425  MISS:    3410167
cpu0_L1D LOAD      ACCESS:   16352853  HIT:   13735656  MISS:    2617197
cpu0_L1D RFO       ACCESS:    8125410  HIT:    7336083  MISS:     789327
cpu0_L1D PREFETCH  ACCESS:          0  HIT:          0  MISS:          0
cpu0_L1D WRITEBACK ACCESS:          0  HIT:          0  MISS:          0
cpu0_L1D TRANSLATION ACCESS:      29329  HIT:      25686  MISS:       3643
cpu0_L1D PREFETCH  REQUESTED:          0  ISSUED:          0  USEFUL:          0  USELESS:          0
cpu0_L1D AVERAGE MISS LATENCY: 512.623 cycles
cpu0_L2C TOTAL     ACCESS:    4455029  HIT:    1718287  MISS:    2736742
cpu0_L2C LOAD      ACCESS:    2617621  HIT:     507633  MISS:    2109988
cpu0_L2C RFO       ACCESS:     789255  HIT:     162773  MISS:     626482
cpu0_L2C PREFETCH  ACCESS:          0  HIT:          0  MISS:          0
cpu0_L2C WRITEBACK ACCESS:    1044510  HIT:    1044336  MISS:        174
cpu0_L2C TRANSLATION ACCESS:       3643  HIT:       3545  MISS:         98
cpu0_L2C PREFETCH  REQUESTED:          0  ISSUED:          0  USEFUL:          0  USELESS:          0
cpu0_L2C AVERAGE MISS LATENCY: 625.085 cycles
LLC TOTAL     ACCESS:    3497282  HIT:     698248  MISS:    2799034
LLC LOAD      ACCESS:    2109988  HIT:     398653  MISS:    1711335
LLC RFO       ACCESS:     626482  HIT:     117541  MISS:     508941
LLC PREFETCH  ACCESS:          0  HIT:          0  MISS:          0
LLC WRITEBACK ACCESS:     760714  HIT:     182019  MISS:     578695
LLC TRANSLATION ACCESS:         98  HIT:         35  MISS:         63
LLC PREFETCH  REQUESTED:          0  ISSUED:          0  USEFUL:          0  USELESS:          0
LLC AVERAGE MISS LATENCY: 590.607 cycles
Insertion Distribution: 
	LOAD 75603 0 280008 1469534 
	RFO 848 0 55595 478900 
	PREF 0 0 0 0 
	WRITEBACK 0 0 0 595780 
	 1 0 43 34 
Total Prefetch Downgrades: 0

DRAM Statistics
 CHANNEL 0
 RQ ROW_BUFFER_HIT:     228504  ROW_BUFFER_MISS:    1991599
 DBUS AVG_CONGESTED_CYCLE:    3.95976
 WQ ROW_BUFFER_HIT:      60465  ROW_BUFFER_MISS:     579421  FULL:      29457


CPU 0 Branch Prediction Accuracy: 96.8713% MPKI: 1.55303 Average ROB Occupancy at Mispredict: 299.913
Branch type MPKI
BRANCH_DIRECT_JUMP: 0.00018
BRANCH_INDIRECT: 0
BRANCH_CONDITIONAL: 1.55065
BRANCH_DIRECT_CALL: 0.00113
BRANCH_INDIRECT_CALL: 0
BRANCH_RETURN: 0.00107

