
*** ChampSim Multicore Out-of-Order Simulator ***

Warmup Instructions: 10000000
Simulation Instructions: 100000000
Number of CPUs: 1
Off-chip DRAM Size: 4 GiB Channels: 1 Width: 64-bit Data Rate: 3200 MT/s

VirtualMemory physical capacity: 8588881920 num_ppages: 2096895
VirtualMemory page size: 4096 log2_page_size: 12

CPU 0 runs /datasets/cs240c-wi22-a00-public/data/Assignment2/omnetpp_17B.trace.xz
CPU 0 Bimodal branch predictor
Basic BTB sets: 1024 ways: 8 indirect buffer size: 4096 RAS size: 64
Initialize SRRIP state
Heartbeat CPU 0 instructions: 10000002 cycles: 2500125 heartbeat IPC: 3.9998 cumulative IPC: 3.9998 (Simulation time: 0 hr 0 min 26 sec) 

Warmup complete CPU 0 instructions: 10000002 cycles: 2500125 (Simulation time: 0 hr 0 min 26 sec) 

Heartbeat CPU 0 instructions: 20000003 cycles: 8116818 heartbeat IPC: 1.78041 cumulative IPC: 1.78041 (Simulation time: 0 hr 0 min 56 sec) 
Heartbeat CPU 0 instructions: 30000000 cycles: 14788100 heartbeat IPC: 1.49896 cumulative IPC: 1.62761 (Simulation time: 0 hr 1 min 38 sec) 
Heartbeat CPU 0 instructions: 40000001 cycles: 21683906 heartbeat IPC: 1.45016 cumulative IPC: 1.56382 (Simulation time: 0 hr 2 min 24 sec) 
Heartbeat CPU 0 instructions: 50000001 cycles: 27608217 heartbeat IPC: 1.68796 cumulative IPC: 1.59311 (Simulation time: 0 hr 2 min 59 sec) 
Heartbeat CPU 0 instructions: 60000001 cycles: 33625692 heartbeat IPC: 1.66183 cumulative IPC: 1.6064 (Simulation time: 0 hr 3 min 36 sec) 
Heartbeat CPU 0 instructions: 70000000 cycles: 40462059 heartbeat IPC: 1.46277 cumulative IPC: 1.58053 (Simulation time: 0 hr 4 min 21 sec) 
Heartbeat CPU 0 instructions: 80000002 cycles: 47311060 heartbeat IPC: 1.46007 cumulative IPC: 1.56212 (Simulation time: 0 hr 5 min 6 sec) 
Heartbeat CPU 0 instructions: 90000003 cycles: 54154478 heartbeat IPC: 1.46126 cumulative IPC: 1.54876 (Simulation time: 0 hr 5 min 51 sec) 
Heartbeat CPU 0 instructions: 100000002 cycles: 59502038 heartbeat IPC: 1.87001 cumulative IPC: 1.57889 (Simulation time: 0 hr 6 min 19 sec) 
Heartbeat CPU 0 instructions: 110000001 cycles: 66241802 heartbeat IPC: 1.48373 cumulative IPC: 1.56883 (Simulation time: 0 hr 7 min 4 sec) 
Finished CPU 0 instructions: 100000004 cycles: 63741684 cumulative IPC: 1.56883 (Simulation time: 0 hr 7 min 4 sec) 

ChampSim completed all CPUs

Region of Interest Statistics

CPU 0 cumulative IPC: 1.56883 instructions: 100000004 cycles: 63741684
cpu0_DTLB TOTAL     ACCESS:   10143432  HIT:    9078523  MISS:    1064909
cpu0_DTLB LOAD      ACCESS:    8206151  HIT:    7143122  MISS:    1063029
cpu0_DTLB RFO       ACCESS:    1937281  HIT:    1935401  MISS:       1880
cpu0_DTLB PREFETCH  ACCESS:          0  HIT:          0  MISS:          0
cpu0_DTLB WRITEBACK ACCESS:          0  HIT:          0  MISS:          0
cpu0_DTLB TRANSLATION ACCESS:          0  HIT:          0  MISS:          0
cpu0_DTLB PREFETCH  REQUESTED:          0  ISSUED:          0  USEFUL:          0  USELESS:          0
cpu0_DTLB AVERAGE MISS LATENCY: 17.9486 cycles
cpu0_ITLB TOTAL     ACCESS:    8332919  HIT:    8330862  MISS:       2057
cpu0_ITLB LOAD      ACCESS:    8332919  HIT:    8330862  MISS:       2057
cpu0_ITLB RFO       ACCESS:          0  HIT:          0  MISS:          0
cpu0_ITLB PREFETCH  ACCESS:          0  HIT:          0  MISS:          0
cpu0_ITLB WRITEBACK ACCESS:          0  HIT:          0  MISS:          0
cpu0_ITLB TRANSLATION ACCESS:          0  HIT:          0  MISS:          0
cpu0_ITLB PREFETCH  REQUESTED:          0  ISSUED:          0  USEFUL:          0  USELESS:          0
cpu0_ITLB AVERAGE MISS LATENCY: 15.6315 cycles
cpu0_L1I TOTAL     ACCESS:    1054830  HIT:    1050490  MISS:       4340
cpu0_L1I LOAD      ACCESS:    1054830  HIT:    1050490  MISS:       4340
cpu0_L1I RFO       ACCESS:          0  HIT:          0  MISS:          0
cpu0_L1I PREFETCH  ACCESS:          0  HIT:          0  MISS:          0
cpu0_L1I WRITEBACK ACCESS:          0  HIT:          0  MISS:          0
cpu0_L1I TRANSLATION ACCESS:          0  HIT:          0  MISS:          0
cpu0_L1I PREFETCH  REQUESTED:          0  ISSUED:          0  USEFUL:          0  USELESS:          0
cpu0_L1I AVERAGE MISS LATENCY: 71.8039 cycles
cpu0_STLB TOTAL     ACCESS:    1066966  HIT:      12851  MISS:    1054115
cpu0_STLB LOAD      ACCESS:    1065086  HIT:      11487  MISS:    1053599
cpu0_STLB RFO       ACCESS:       1880  HIT:       1364  MISS:        516
cpu0_STLB PREFETCH  ACCESS:          0  HIT:          0  MISS:          0
cpu0_STLB WRITEBACK ACCESS:          0  HIT:          0  MISS:          0
cpu0_STLB TRANSLATION ACCESS:          0  HIT:          0  MISS:          0
cpu0_STLB PREFETCH  REQUESTED:          0  ISSUED:          0  USEFUL:          0  USELESS:          0
cpu0_STLB AVERAGE MISS LATENCY: 8.57044 cycles
cpu0_L1D TOTAL     ACCESS:   10061403  HIT:    8306913  MISS:    1754490
cpu0_L1D LOAD      ACCESS:    6299618  HIT:    4559330  MISS:    1740288
cpu0_L1D RFO       ACCESS:    3337353  HIT:    3324294  MISS:      13059
cpu0_L1D PREFETCH  ACCESS:          0  HIT:          0  MISS:          0
cpu0_L1D WRITEBACK ACCESS:          0  HIT:          0  MISS:          0
cpu0_L1D TRANSLATION ACCESS:     424432  HIT:     423289  MISS:       1143
cpu0_L1D PREFETCH  REQUESTED:          0  ISSUED:          0  USEFUL:          0  USELESS:          0
cpu0_L1D AVERAGE MISS LATENCY: 85.4303 cycles
cpu0_L2C TOTAL     ACCESS:    1775640  HIT:      23353  MISS:    1752287
cpu0_L2C LOAD      ACCESS:    1744628  HIT:       5922  MISS:    1738706
cpu0_L2C RFO       ACCESS:      13059  HIT:        137  MISS:      12922
cpu0_L2C PREFETCH  ACCESS:          0  HIT:          0  MISS:          0
cpu0_L2C WRITEBACK ACCESS:      16810  HIT:      16810  MISS:          0
cpu0_L2C TRANSLATION ACCESS:       1143  HIT:        484  MISS:        659
cpu0_L2C PREFETCH  REQUESTED:          0  ISSUED:          0  USEFUL:          0  USELESS:          0
cpu0_L2C AVERAGE MISS LATENCY: 73.9771 cycles
LLC TOTAL     ACCESS:    1768993  HIT:    1491863  MISS:     277130
LLC LOAD      ACCESS:    1738706  HIT:    1477770  MISS:     260936
LLC RFO       ACCESS:      12922  HIT:       2383  MISS:      10539
LLC PREFETCH  ACCESS:          0  HIT:          0  MISS:          0
LLC WRITEBACK ACCESS:      16706  HIT:      11214  MISS:       5492
LLC TRANSLATION ACCESS:        659  HIT:        496  MISS:        163
LLC PREFETCH  REQUESTED:          0  ISSUED:          0  USEFUL:          0  USELESS:          0
LLC AVERAGE MISS LATENCY: 334.921 cycles
Insertion Distribution: 
	LOAD 12438 0 44876 279013 
	RFO 0 0 1722 9905 
	PREF 0 0 0 0 
	WRITEBACK 0 0 0 5578 
	 3 0 85 118 
Total Prefetch Downgrades: 0

DRAM Statistics
 CHANNEL 0
 RQ ROW_BUFFER_HIT:      10999  ROW_BUFFER_MISS:     260575
 DBUS AVG_CONGESTED_CYCLE:    3.96112
 WQ ROW_BUFFER_HIT:       3256  ROW_BUFFER_MISS:       8554  FULL:          0


CPU 0 Branch Prediction Accuracy: 97.6159% MPKI: 7.87238 Average ROB Occupancy at Mispredict: 63.318
Branch type MPKI
BRANCH_DIRECT_JUMP: 0.00032
BRANCH_INDIRECT: 0.08474
BRANCH_CONDITIONAL: 7.75802
BRANCH_DIRECT_CALL: 0.00068
BRANCH_INDIRECT_CALL: 0.00292
BRANCH_RETURN: 0.0257

