
*** ChampSim Multicore Out-of-Order Simulator ***

Warmup Instructions: 10000000
Simulation Instructions: 100000000
Number of CPUs: 1
Off-chip DRAM Size: 4 GiB Channels: 1 Width: 64-bit Data Rate: 3200 MT/s

VirtualMemory physical capacity: 8588881920 num_ppages: 2096895
VirtualMemory page size: 4096 log2_page_size: 12

CPU 0 runs /datasets/cs240c-wi22-a00-public/data/Assignment2/cactusADM_1039B.trace.xz
CPU 0 Bimodal branch predictor
Basic BTB sets: 1024 ways: 8 indirect buffer size: 4096 RAS size: 64
Initialize SRRIP state
Heartbeat CPU 0 instructions: 10000004 cycles: 3647107 heartbeat IPC: 2.7419 cumulative IPC: 2.7419 (Simulation time: 0 hr 0 min 47 sec) 

Warmup complete CPU 0 instructions: 10000004 cycles: 3647107 (Simulation time: 0 hr 0 min 47 sec) 

Heartbeat CPU 0 instructions: 20000004 cycles: 13502540 heartbeat IPC: 1.01467 cumulative IPC: 1.01467 (Simulation time: 0 hr 2 min 21 sec) 
Heartbeat CPU 0 instructions: 30000000 cycles: 22564976 heartbeat IPC: 1.10346 cumulative IPC: 1.0572 (Simulation time: 0 hr 4 min 0 sec) 
Heartbeat CPU 0 instructions: 40000000 cycles: 32466536 heartbeat IPC: 1.00994 cumulative IPC: 1.04096 (Simulation time: 0 hr 5 min 44 sec) 
Heartbeat CPU 0 instructions: 50000004 cycles: 41381531 heartbeat IPC: 1.12171 cumulative IPC: 1.06004 (Simulation time: 0 hr 7 min 21 sec) 
Heartbeat CPU 0 instructions: 60000004 cycles: 47415821 heartbeat IPC: 1.6572 cumulative IPC: 1.14237 (Simulation time: 0 hr 8 min 40 sec) 
Heartbeat CPU 0 instructions: 70000004 cycles: 55896616 heartbeat IPC: 1.17913 cumulative IPC: 1.14834 (Simulation time: 0 hr 10 min 15 sec) 
Heartbeat CPU 0 instructions: 80000004 cycles: 64705222 heartbeat IPC: 1.13525 cumulative IPC: 1.14645 (Simulation time: 0 hr 11 min 50 sec) 
Heartbeat CPU 0 instructions: 90000004 cycles: 73198816 heartbeat IPC: 1.17736 cumulative IPC: 1.15022 (Simulation time: 0 hr 13 min 27 sec) 
Heartbeat CPU 0 instructions: 100000000 cycles: 79130474 heartbeat IPC: 1.68587 cumulative IPC: 1.19232 (Simulation time: 0 hr 14 min 46 sec) 
Heartbeat CPU 0 instructions: 110000003 cycles: 87701068 heartbeat IPC: 1.16678 cumulative IPC: 1.18971 (Simulation time: 0 hr 16 min 20 sec) 
Finished CPU 0 instructions: 100000004 cycles: 84053962 cumulative IPC: 1.18971 (Simulation time: 0 hr 16 min 20 sec) 

ChampSim completed all CPUs

Region of Interest Statistics

CPU 0 cumulative IPC: 1.18971 instructions: 100000004 cycles: 84053962
cpu0_DTLB TOTAL     ACCESS:   22804517  HIT:   20753946  MISS:    2050571
cpu0_DTLB LOAD      ACCESS:   18896349  HIT:   17462502  MISS:    1433847
cpu0_DTLB RFO       ACCESS:    3908168  HIT:    3291444  MISS:     616724
cpu0_DTLB PREFETCH  ACCESS:          0  HIT:          0  MISS:          0
cpu0_DTLB WRITEBACK ACCESS:          0  HIT:          0  MISS:          0
cpu0_DTLB TRANSLATION ACCESS:          0  HIT:          0  MISS:          0
cpu0_DTLB PREFETCH  REQUESTED:          0  ISSUED:          0  USEFUL:          0  USELESS:          0
cpu0_DTLB AVERAGE MISS LATENCY: 17.0897 cycles
cpu0_ITLB TOTAL     ACCESS:    1451326  HIT:    1451326  MISS:          0
cpu0_ITLB LOAD      ACCESS:    1451326  HIT:    1451326  MISS:          0
cpu0_ITLB RFO       ACCESS:          0  HIT:          0  MISS:          0
cpu0_ITLB PREFETCH  ACCESS:          0  HIT:          0  MISS:          0
cpu0_ITLB WRITEBACK ACCESS:          0  HIT:          0  MISS:          0
cpu0_ITLB TRANSLATION ACCESS:          0  HIT:          0  MISS:          0
cpu0_ITLB PREFETCH  REQUESTED:          0  ISSUED:          0  USEFUL:          0  USELESS:          0
cpu0_ITLB AVERAGE MISS LATENCY: -nan cycles
cpu0_L1I TOTAL     ACCESS:    8113797  HIT:    8113794  MISS:          3
cpu0_L1I LOAD      ACCESS:    8113797  HIT:    8113794  MISS:          3
cpu0_L1I RFO       ACCESS:          0  HIT:          0  MISS:          0
cpu0_L1I PREFETCH  ACCESS:          0  HIT:          0  MISS:          0
cpu0_L1I WRITEBACK ACCESS:          0  HIT:          0  MISS:          0
cpu0_L1I TRANSLATION ACCESS:          0  HIT:          0  MISS:          0
cpu0_L1I PREFETCH  REQUESTED:          0  ISSUED:          0  USEFUL:          0  USELESS:          0
cpu0_L1I AVERAGE MISS LATENCY: 588.333 cycles
cpu0_STLB TOTAL     ACCESS:    2050571  HIT:    1132526  MISS:     918045
cpu0_STLB LOAD      ACCESS:    1433847  HIT:     837373  MISS:     596474
cpu0_STLB RFO       ACCESS:     616724  HIT:     295153  MISS:     321571
cpu0_STLB PREFETCH  ACCESS:          0  HIT:          0  MISS:          0
cpu0_STLB WRITEBACK ACCESS:          0  HIT:          0  MISS:          0
cpu0_STLB TRANSLATION ACCESS:          0  HIT:          0  MISS:          0
cpu0_STLB PREFETCH  REQUESTED:          0  ISSUED:          0  USEFUL:          0  USELESS:          0
cpu0_STLB AVERAGE MISS LATENCY: 17.9072 cycles
cpu0_L1D TOTAL     ACCESS:   37555911  HIT:   36232212  MISS:    1323699
cpu0_L1D LOAD      ACCESS:   25707119  HIT:   24654718  MISS:    1052401
cpu0_L1D RFO       ACCESS:   10931586  HIT:   10666215  MISS:     265371
cpu0_L1D PREFETCH  ACCESS:          0  HIT:          0  MISS:          0
cpu0_L1D WRITEBACK ACCESS:          0  HIT:          0  MISS:          0
cpu0_L1D TRANSLATION ACCESS:     917206  HIT:     911279  MISS:       5927
cpu0_L1D PREFETCH  REQUESTED:          0  ISSUED:          0  USEFUL:          0  USELESS:          0
cpu0_L1D AVERAGE MISS LATENCY: 317.24 cycles
cpu0_L2C TOTAL     ACCESS:    1592968  HIT:     694154  MISS:     898814
cpu0_L2C LOAD      ACCESS:    1052403  HIT:     419481  MISS:     632922
cpu0_L2C RFO       ACCESS:     265371  HIT:          0  MISS:     265371
cpu0_L2C PREFETCH  ACCESS:          0  HIT:          0  MISS:          0
cpu0_L2C WRITEBACK ACCESS:     269267  HIT:     269055  MISS:        212
cpu0_L2C TRANSLATION ACCESS:       5927  HIT:       5618  MISS:        309
cpu0_L2C PREFETCH  REQUESTED:          0  ISSUED:          0  USEFUL:          0  USELESS:          0
cpu0_L2C AVERAGE MISS LATENCY: 450.987 cycles
LLC TOTAL     ACCESS:    1165765  HIT:     333903  MISS:     831862
LLC LOAD      ACCESS:     632922  HIT:     171876  MISS:     461046
LLC RFO       ACCESS:     265371  HIT:      59482  MISS:     205889
LLC PREFETCH  ACCESS:          0  HIT:          0  MISS:          0
LLC WRITEBACK ACCESS:     267163  HIT:     102487  MISS:     164676
LLC TRANSLATION ACCESS:        309  HIT:         58  MISS:        251
LLC PREFETCH  REQUESTED:          0  ISSUED:          0  USEFUL:          0  USELESS:          0
LLC AVERAGE MISS LATENCY: 464.599 cycles
Insertion Distribution: 
	LOAD 10217 0 98223 402682 
	RFO 3852 0 43499 169819 
	PREF 0 0 0 0 
	WRITEBACK 0 0 0 167384 
	 0 0 54 238 
Total Prefetch Downgrades: 0

DRAM Statistics
 CHANNEL 0
 RQ ROW_BUFFER_HIT:       6810  ROW_BUFFER_MISS:     660365
 DBUS AVG_CONGESTED_CYCLE:    3.97598
 WQ ROW_BUFFER_HIT:      14229  ROW_BUFFER_MISS:     196308  FULL:        456


CPU 0 Branch Prediction Accuracy: 97.7479% MPKI: 0.04701 Average ROB Occupancy at Mispredict: 283.889
Branch type MPKI
BRANCH_DIRECT_JUMP: 0
BRANCH_INDIRECT: 0
BRANCH_CONDITIONAL: 0.04701
BRANCH_DIRECT_CALL: 0
BRANCH_INDIRECT_CALL: 0
BRANCH_RETURN: 0

