
*** ChampSim Multicore Out-of-Order Simulator ***

Warmup Instructions: 10000000
Simulation Instructions: 100000000
Number of CPUs: 1
Off-chip DRAM Size: 4 GiB Channels: 1 Width: 64-bit Data Rate: 3200 MT/s

VirtualMemory physical capacity: 8588881920 num_ppages: 2096895
VirtualMemory page size: 4096 log2_page_size: 12

CPU 0 runs /datasets/cs240c-wi22-a00-public/data/Assignment2/libquantum_1210B.trace.xz
CPU 0 Bimodal branch predictor
Basic BTB sets: 1024 ways: 8 indirect buffer size: 4096 RAS size: 64
Initialize SRRIP state
Heartbeat CPU 0 instructions: 10000001 cycles: 2500056 heartbeat IPC: 3.99991 cumulative IPC: 3.99991 (Simulation time: 0 hr 0 min 25 sec) 

Warmup complete CPU 0 instructions: 10000001 cycles: 2500056 (Simulation time: 0 hr 0 min 25 sec) 

Heartbeat CPU 0 instructions: 20000000 cycles: 43934472 heartbeat IPC: 0.241345 cumulative IPC: 0.241345 (Simulation time: 0 hr 1 min 58 sec) 
Heartbeat CPU 0 instructions: 30000003 cycles: 82524615 heartbeat IPC: 0.259134 cumulative IPC: 0.249923 (Simulation time: 0 hr 3 min 28 sec) 
Heartbeat CPU 0 instructions: 40000002 cycles: 87496663 heartbeat IPC: 2.01124 cumulative IPC: 0.352955 (Simulation time: 0 hr 4 min 17 sec) 
Heartbeat CPU 0 instructions: 50000000 cycles: 103154360 heartbeat IPC: 0.638663 cumulative IPC: 0.3974 (Simulation time: 0 hr 5 min 19 sec) 
Heartbeat CPU 0 instructions: 60000001 cycles: 149012991 heartbeat IPC: 0.218061 cumulative IPC: 0.341267 (Simulation time: 0 hr 6 min 59 sec) 
Heartbeat CPU 0 instructions: 70000004 cycles: 186845300 heartbeat IPC: 0.264324 cumulative IPC: 0.325476 (Simulation time: 0 hr 8 min 26 sec) 
Heartbeat CPU 0 instructions: 80000001 cycles: 224905006 heartbeat IPC: 0.262745 cumulative IPC: 0.314741 (Simulation time: 0 hr 9 min 53 sec) 
Heartbeat CPU 0 instructions: 90000001 cycles: 266584149 heartbeat IPC: 0.239928 cumulative IPC: 0.302934 (Simulation time: 0 hr 11 min 24 sec) 
Heartbeat CPU 0 instructions: 100000002 cycles: 305830212 heartbeat IPC: 0.254803 cumulative IPC: 0.296706 (Simulation time: 0 hr 12 min 56 sec) 
Heartbeat CPU 0 instructions: 110000001 cycles: 310801965 heartbeat IPC: 2.01136 cumulative IPC: 0.324357 (Simulation time: 0 hr 13 min 46 sec) 
Finished CPU 0 instructions: 100000000 cycles: 308301909 cumulative IPC: 0.324357 (Simulation time: 0 hr 13 min 46 sec) 

ChampSim completed all CPUs

Region of Interest Statistics

CPU 0 cumulative IPC: 0.324357 instructions: 100000000 cycles: 308301909
cpu0_DTLB TOTAL     ACCESS:   11044039  HIT:   10997036  MISS:      47003
cpu0_DTLB LOAD      ACCESS:    9189576  HIT:    9142579  MISS:      46997
cpu0_DTLB RFO       ACCESS:    1854463  HIT:    1854457  MISS:          6
cpu0_DTLB PREFETCH  ACCESS:          0  HIT:          0  MISS:          0
cpu0_DTLB WRITEBACK ACCESS:          0  HIT:          0  MISS:          0
cpu0_DTLB TRANSLATION ACCESS:          0  HIT:          0  MISS:          0
cpu0_DTLB PREFETCH  REQUESTED:          0  ISSUED:          0  USEFUL:          0  USELESS:          0
cpu0_DTLB AVERAGE MISS LATENCY: 34.4958 cycles
cpu0_ITLB TOTAL     ACCESS:    4372095  HIT:    4372091  MISS:          4
cpu0_ITLB LOAD      ACCESS:    4372095  HIT:    4372091  MISS:          4
cpu0_ITLB RFO       ACCESS:          0  HIT:          0  MISS:          0
cpu0_ITLB PREFETCH  ACCESS:          0  HIT:          0  MISS:          0
cpu0_ITLB WRITEBACK ACCESS:          0  HIT:          0  MISS:          0
cpu0_ITLB TRANSLATION ACCESS:          0  HIT:          0  MISS:          0
cpu0_ITLB PREFETCH  REQUESTED:          0  ISSUED:          0  USEFUL:          0  USELESS:          0
cpu0_ITLB AVERAGE MISS LATENCY: 225 cycles
cpu0_L1I TOTAL     ACCESS:         38  HIT:         18  MISS:         20
cpu0_L1I LOAD      ACCESS:         38  HIT:         18  MISS:         20
cpu0_L1I RFO       ACCESS:          0  HIT:          0  MISS:          0
cpu0_L1I PREFETCH  ACCESS:          0  HIT:          0  MISS:          0
cpu0_L1I WRITEBACK ACCESS:          0  HIT:          0  MISS:          0
cpu0_L1I TRANSLATION ACCESS:          0  HIT:          0  MISS:          0
cpu0_L1I PREFETCH  REQUESTED:          0  ISSUED:          0  USEFUL:          0  USELESS:          0
cpu0_L1I AVERAGE MISS LATENCY: 195.15 cycles
cpu0_STLB TOTAL     ACCESS:      47007  HIT:          0  MISS:      47007
cpu0_STLB LOAD      ACCESS:      47001  HIT:          0  MISS:      47001
cpu0_STLB RFO       ACCESS:          6  HIT:          0  MISS:          6
cpu0_STLB PREFETCH  ACCESS:          0  HIT:          0  MISS:          0
cpu0_STLB WRITEBACK ACCESS:          0  HIT:          0  MISS:          0
cpu0_STLB TRANSLATION ACCESS:          0  HIT:          0  MISS:          0
cpu0_STLB PREFETCH  REQUESTED:          0  ISSUED:          0  USEFUL:          0  USELESS:          0
cpu0_STLB AVERAGE MISS LATENCY: 25.512 cycles
cpu0_L1D TOTAL     ACCESS:    7108788  HIT:    4101984  MISS:    3006804
cpu0_L1D LOAD      ACCESS:    4891381  HIT:    1884635  MISS:    3006746
cpu0_L1D RFO       ACCESS:    2170399  HIT:    2170377  MISS:         22
cpu0_L1D PREFETCH  ACCESS:          0  HIT:          0  MISS:          0
cpu0_L1D WRITEBACK ACCESS:          0  HIT:          0  MISS:          0
cpu0_L1D TRANSLATION ACCESS:      47008  HIT:      46972  MISS:         36
cpu0_L1D PREFETCH  REQUESTED:          0  ISSUED:          0  USEFUL:          0  USELESS:          0
cpu0_L1D AVERAGE MISS LATENCY: 213.141 cycles
cpu0_L2C TOTAL     ACCESS:    4045647  HIT:    1038823  MISS:    3006824
cpu0_L2C LOAD      ACCESS:    3006766  HIT:          0  MISS:    3006766
cpu0_L2C RFO       ACCESS:         22  HIT:          0  MISS:         22
cpu0_L2C PREFETCH  ACCESS:          0  HIT:          0  MISS:          0
cpu0_L2C WRITEBACK ACCESS:    1038823  HIT:    1038823  MISS:          0
cpu0_L2C TRANSLATION ACCESS:         36  HIT:          0  MISS:         36
cpu0_L2C PREFETCH  REQUESTED:          0  ISSUED:          0  USEFUL:          0  USELESS:          0
cpu0_L2C AVERAGE MISS LATENCY: 202.137 cycles
LLC TOTAL     ACCESS:    4049066  HIT:     211903  MISS:    3837163
LLC LOAD      ACCESS:    3006766  HIT:     156279  MISS:    2850487
LLC RFO       ACCESS:         22  HIT:         16  MISS:          6
LLC PREFETCH  ACCESS:          0  HIT:          0  MISS:          0
LLC WRITEBACK ACCESS:    1042242  HIT:      55592  MISS:     986650
LLC TRANSLATION ACCESS:         36  HIT:         16  MISS:         20
LLC PREFETCH  REQUESTED:          0  ISSUED:          0  USEFUL:          0  USELESS:          0
LLC AVERAGE MISS LATENCY: 141.933 cycles
Insertion Distribution: 
	LOAD 6858 0 0 0 0 0 47841 3058585 
	RFO 0 0 0 0 0 0 6 0 
	PREF 0 0 0 0 0 0 0 0 
	WRITEBACK 0 0 0 0 0 0 0 1094560 
	 1 0 0 0 0 0 16 12 
Total Prefetch Downgrades: 0

DRAM Statistics
 CHANNEL 0
 RQ ROW_BUFFER_HIT:    1388748  ROW_BUFFER_MISS:    1461766
 DBUS AVG_CONGESTED_CYCLE:    3.76076
 WQ ROW_BUFFER_HIT:     387231  ROW_BUFFER_MISS:     615400  FULL:      23268


CPU 0 Branch Prediction Accuracy: 89.9607% MPKI: 24.1485 Average ROB Occupancy at Mispredict: 2.83314
Branch type MPKI
BRANCH_DIRECT_JUMP: 4e-05
BRANCH_INDIRECT: 0
BRANCH_CONDITIONAL: 24.1482
BRANCH_DIRECT_CALL: 0.00011
BRANCH_INDIRECT_CALL: 0
BRANCH_RETURN: 0.00012

