
*** ChampSim Multicore Out-of-Order Simulator ***

Warmup Instructions: 10000000
Simulation Instructions: 100000000
Number of CPUs: 1
Off-chip DRAM Size: 4 GiB Channels: 1 Width: 64-bit Data Rate: 3200 MT/s

VirtualMemory physical capacity: 8588881920 num_ppages: 2096895
VirtualMemory page size: 4096 log2_page_size: 12

CPU 0 runs /datasets/cs240c-wi22-a00-public/data/Assignment2/calculix_2655B.trace.xz
CPU 0 Bimodal branch predictor
Basic BTB sets: 1024 ways: 8 indirect buffer size: 4096 RAS size: 64
Initialize SRRIP state
Heartbeat CPU 0 instructions: 10000003 cycles: 2503575 heartbeat IPC: 3.99429 cumulative IPC: 3.99429 (Simulation time: 0 hr 0 min 22 sec) 

Warmup complete CPU 0 instructions: 10000003 cycles: 2503575 (Simulation time: 0 hr 0 min 22 sec) 

Heartbeat CPU 0 instructions: 20000002 cycles: 5968993 heartbeat IPC: 2.88565 cumulative IPC: 2.88565 (Simulation time: 0 hr 0 min 49 sec) 
Heartbeat CPU 0 instructions: 30000004 cycles: 9700488 heartbeat IPC: 2.67989 cumulative IPC: 2.77897 (Simulation time: 0 hr 1 min 17 sec) 
Heartbeat CPU 0 instructions: 40000004 cycles: 13384688 heartbeat IPC: 2.71429 cumulative IPC: 2.75707 (Simulation time: 0 hr 1 min 45 sec) 
Heartbeat CPU 0 instructions: 50000001 cycles: 17264036 heartbeat IPC: 2.57775 cumulative IPC: 2.70994 (Simulation time: 0 hr 2 min 11 sec) 
Heartbeat CPU 0 instructions: 60000003 cycles: 21315555 heartbeat IPC: 2.46821 cumulative IPC: 2.65788 (Simulation time: 0 hr 2 min 38 sec) 
Heartbeat CPU 0 instructions: 70000001 cycles: 25544354 heartbeat IPC: 2.36474 cumulative IPC: 2.60408 (Simulation time: 0 hr 3 min 7 sec) 
Heartbeat CPU 0 instructions: 80000001 cycles: 29412148 heartbeat IPC: 2.58545 cumulative IPC: 2.6014 (Simulation time: 0 hr 3 min 33 sec) 
Heartbeat CPU 0 instructions: 90000002 cycles: 33141368 heartbeat IPC: 2.68153 cumulative IPC: 2.61115 (Simulation time: 0 hr 3 min 58 sec) 
Heartbeat CPU 0 instructions: 100000003 cycles: 36766337 heartbeat IPC: 2.75864 cumulative IPC: 2.62676 (Simulation time: 0 hr 4 min 24 sec) 
Heartbeat CPU 0 instructions: 110000004 cycles: 40239637 heartbeat IPC: 2.87911 cumulative IPC: 2.64999 (Simulation time: 0 hr 4 min 49 sec) 
Finished CPU 0 instructions: 100000001 cycles: 37736062 cumulative IPC: 2.64998 (Simulation time: 0 hr 4 min 49 sec) 

ChampSim completed all CPUs

Region of Interest Statistics

CPU 0 cumulative IPC: 2.64998 instructions: 100000001 cycles: 37736062
cpu0_DTLB TOTAL     ACCESS:   12590106  HIT:   12574562  MISS:      15544
cpu0_DTLB LOAD      ACCESS:   12003272  HIT:   11987772  MISS:      15500
cpu0_DTLB RFO       ACCESS:     586834  HIT:     586790  MISS:         44
cpu0_DTLB PREFETCH  ACCESS:          0  HIT:          0  MISS:          0
cpu0_DTLB WRITEBACK ACCESS:          0  HIT:          0  MISS:          0
cpu0_DTLB TRANSLATION ACCESS:          0  HIT:          0  MISS:          0
cpu0_DTLB PREFETCH  REQUESTED:          0  ISSUED:          0  USEFUL:          0  USELESS:          0
cpu0_DTLB AVERAGE MISS LATENCY: 34.1365 cycles
cpu0_ITLB TOTAL     ACCESS:    6246851  HIT:    6246851  MISS:          0
cpu0_ITLB LOAD      ACCESS:    6246851  HIT:    6246851  MISS:          0
cpu0_ITLB RFO       ACCESS:          0  HIT:          0  MISS:          0
cpu0_ITLB PREFETCH  ACCESS:          0  HIT:          0  MISS:          0
cpu0_ITLB WRITEBACK ACCESS:          0  HIT:          0  MISS:          0
cpu0_ITLB TRANSLATION ACCESS:          0  HIT:          0  MISS:          0
cpu0_ITLB PREFETCH  REQUESTED:          0  ISSUED:          0  USEFUL:          0  USELESS:          0
cpu0_ITLB AVERAGE MISS LATENCY: -nan cycles
cpu0_L1I TOTAL     ACCESS:       2858  HIT:       2858  MISS:          0
cpu0_L1I LOAD      ACCESS:       2858  HIT:       2858  MISS:          0
cpu0_L1I RFO       ACCESS:          0  HIT:          0  MISS:          0
cpu0_L1I PREFETCH  ACCESS:          0  HIT:          0  MISS:          0
cpu0_L1I WRITEBACK ACCESS:          0  HIT:          0  MISS:          0
cpu0_L1I TRANSLATION ACCESS:          0  HIT:          0  MISS:          0
cpu0_L1I PREFETCH  REQUESTED:          0  ISSUED:          0  USEFUL:          0  USELESS:          0
cpu0_L1I AVERAGE MISS LATENCY: -nan cycles
cpu0_STLB TOTAL     ACCESS:      15544  HIT:      13634  MISS:       1910
cpu0_STLB LOAD      ACCESS:      15500  HIT:      13592  MISS:       1908
cpu0_STLB RFO       ACCESS:         44  HIT:         42  MISS:          2
cpu0_STLB PREFETCH  ACCESS:          0  HIT:          0  MISS:          0
cpu0_STLB WRITEBACK ACCESS:          0  HIT:          0  MISS:          0
cpu0_STLB TRANSLATION ACCESS:          0  HIT:          0  MISS:          0
cpu0_STLB PREFETCH  REQUESTED:          0  ISSUED:          0  USEFUL:          0  USELESS:          0
cpu0_STLB AVERAGE MISS LATENCY: 204.429 cycles
cpu0_L1D TOTAL     ACCESS:   14096938  HIT:   12883445  MISS:    1213493
cpu0_L1D LOAD      ACCESS:   12537582  HIT:   11325400  MISS:    1212182
cpu0_L1D RFO       ACCESS:    1557476  HIT:    1556232  MISS:       1244
cpu0_L1D PREFETCH  ACCESS:          0  HIT:          0  MISS:          0
cpu0_L1D WRITEBACK ACCESS:          0  HIT:          0  MISS:          0
cpu0_L1D TRANSLATION ACCESS:       1880  HIT:       1813  MISS:         67
cpu0_L1D PREFETCH  REQUESTED:          0  ISSUED:          0  USEFUL:          0  USELESS:          0
cpu0_L1D AVERAGE MISS LATENCY: 29.0447 cycles
cpu0_L2C TOTAL     ACCESS:    1327973  HIT:    1058352  MISS:     269621
cpu0_L2C LOAD      ACCESS:    1212182  HIT:     942700  MISS:     269482
cpu0_L2C RFO       ACCESS:       1244  HIT:       1214  MISS:         30
cpu0_L2C PREFETCH  ACCESS:          0  HIT:          0  MISS:          0
cpu0_L2C WRITEBACK ACCESS:     114480  HIT:     114388  MISS:         92
cpu0_L2C TRANSLATION ACCESS:         67  HIT:         50  MISS:         17
cpu0_L2C PREFETCH  REQUESTED:          0  ISSUED:          0  USEFUL:          0  USELESS:          0
cpu0_L2C AVERAGE MISS LATENCY: 80.9523 cycles
LLC TOTAL     ACCESS:     335155  HIT:     193454  MISS:     141701
LLC LOAD      ACCESS:     269482  HIT:     129131  MISS:     140351
LLC RFO       ACCESS:         30  HIT:         18  MISS:         12
LLC PREFETCH  ACCESS:          0  HIT:          0  MISS:          0
LLC WRITEBACK ACCESS:      65626  HIT:      64292  MISS:       1334
LLC TRANSLATION ACCESS:         17  HIT:         13  MISS:          4
LLC PREFETCH  REQUESTED:          0  ISSUED:          0  USEFUL:          0  USELESS:          0
LLC AVERAGE MISS LATENCY: 114.086 cycles
Insertion Distribution: 
	LOAD 29042 0 31718 99560 
	RFO 0 0 20 0 
	PREF 0 0 0 0 
	WRITEBACK 0 0 0 1342 
	 0 0 15 0 
Total Prefetch Downgrades: 0

DRAM Statistics
 CHANNEL 0
 RQ ROW_BUFFER_HIT:      96562  ROW_BUFFER_MISS:      43800
 DBUS AVG_CONGESTED_CYCLE:    3.80804
 WQ ROW_BUFFER_HIT:        818  ROW_BUFFER_MISS:       1374  FULL:          0


CPU 0 Branch Prediction Accuracy: 96.352% MPKI: 1.49459 Average ROB Occupancy at Mispredict: 220.122
Branch type MPKI
BRANCH_DIRECT_JUMP: 0
BRANCH_INDIRECT: 0
BRANCH_CONDITIONAL: 1.49459
BRANCH_DIRECT_CALL: 0
BRANCH_INDIRECT_CALL: 0
BRANCH_RETURN: 0

