
*** ChampSim Multicore Out-of-Order Simulator ***

Warmup Instructions: 10000000
Simulation Instructions: 100000000
Number of CPUs: 1
Off-chip DRAM Size: 4 GiB Channels: 1 Width: 64-bit Data Rate: 3200 MT/s

VirtualMemory physical capacity: 8588881920 num_ppages: 2096895
VirtualMemory page size: 4096 log2_page_size: 12

CPU 0 runs /datasets/cs240c-wi22-a00-public/data/Assignment2/milc_409B.trace.xz
CPU 0 Bimodal branch predictor
Basic BTB sets: 1024 ways: 8 indirect buffer size: 4096 RAS size: 64
Initialize SRRIP state
Heartbeat CPU 0 instructions: 10000000 cycles: 3019991 heartbeat IPC: 3.31127 cumulative IPC: 3.31127 (Simulation time: 0 hr 0 min 35 sec) 

Warmup complete CPU 0 instructions: 10000004 cycles: 3019992 (Simulation time: 0 hr 0 min 35 sec) 

Heartbeat CPU 0 instructions: 20000002 cycles: 19562841 heartbeat IPC: 0.604491 cumulative IPC: 0.604491 (Simulation time: 0 hr 2 min 7 sec) 
Heartbeat CPU 0 instructions: 30000001 cycles: 35943349 heartbeat IPC: 0.610482 cumulative IPC: 0.607471 (Simulation time: 0 hr 3 min 39 sec) 
Heartbeat CPU 0 instructions: 40000004 cycles: 52304173 heartbeat IPC: 0.611216 cumulative IPC: 0.608715 (Simulation time: 0 hr 5 min 9 sec) 
Heartbeat CPU 0 instructions: 50000000 cycles: 68669391 heartbeat IPC: 0.611052 cumulative IPC: 0.609297 (Simulation time: 0 hr 6 min 41 sec) 
Heartbeat CPU 0 instructions: 60000004 cycles: 90449599 heartbeat IPC: 0.459133 cumulative IPC: 0.571889 (Simulation time: 0 hr 8 min 50 sec) 
Heartbeat CPU 0 instructions: 70000003 cycles: 106418729 heartbeat IPC: 0.626208 cumulative IPC: 0.580278 (Simulation time: 0 hr 10 min 16 sec) 
Heartbeat CPU 0 instructions: 80000002 cycles: 122535462 heartbeat IPC: 0.620473 cumulative IPC: 0.585698 (Simulation time: 0 hr 11 min 45 sec) 
Heartbeat CPU 0 instructions: 90000001 cycles: 138530754 heartbeat IPC: 0.625184 cumulative IPC: 0.590359 (Simulation time: 0 hr 13 min 9 sec) 
Heartbeat CPU 0 instructions: 100000001 cycles: 154533653 heartbeat IPC: 0.624887 cumulative IPC: 0.594006 (Simulation time: 0 hr 14 min 34 sec) 
Heartbeat CPU 0 instructions: 110000003 cycles: 175499281 heartbeat IPC: 0.476971 cumulative IPC: 0.57978 (Simulation time: 0 hr 17 min 10 sec) 
Finished CPU 0 instructions: 100000004 cycles: 172479290 cumulative IPC: 0.57978 (Simulation time: 0 hr 17 min 10 sec) 

ChampSim completed all CPUs

Region of Interest Statistics

CPU 0 cumulative IPC: 0.57978 instructions: 100000004 cycles: 172479290
cpu0_DTLB TOTAL     ACCESS:   14833668  HIT:   14658502  MISS:     175166
cpu0_DTLB LOAD      ACCESS:    7381367  HIT:    7208342  MISS:     173025
cpu0_DTLB RFO       ACCESS:    7452301  HIT:    7450160  MISS:       2141
cpu0_DTLB PREFETCH  ACCESS:          0  HIT:          0  MISS:          0
cpu0_DTLB WRITEBACK ACCESS:          0  HIT:          0  MISS:          0
cpu0_DTLB TRANSLATION ACCESS:          0  HIT:          0  MISS:          0
cpu0_DTLB PREFETCH  REQUESTED:          0  ISSUED:          0  USEFUL:          0  USELESS:          0
cpu0_DTLB AVERAGE MISS LATENCY: 105.466 cycles
cpu0_ITLB TOTAL     ACCESS:    2819892  HIT:    2819888  MISS:          4
cpu0_ITLB LOAD      ACCESS:    2819892  HIT:    2819888  MISS:          4
cpu0_ITLB RFO       ACCESS:          0  HIT:          0  MISS:          0
cpu0_ITLB PREFETCH  ACCESS:          0  HIT:          0  MISS:          0
cpu0_ITLB WRITEBACK ACCESS:          0  HIT:          0  MISS:          0
cpu0_ITLB TRANSLATION ACCESS:          0  HIT:          0  MISS:          0
cpu0_ITLB PREFETCH  REQUESTED:          0  ISSUED:          0  USEFUL:          0  USELESS:          0
cpu0_ITLB AVERAGE MISS LATENCY: 225 cycles
cpu0_L1I TOTAL     ACCESS:    7055507  HIT:    7055456  MISS:         51
cpu0_L1I LOAD      ACCESS:    7055507  HIT:    7055456  MISS:         51
cpu0_L1I RFO       ACCESS:          0  HIT:          0  MISS:          0
cpu0_L1I PREFETCH  ACCESS:          0  HIT:          0  MISS:          0
cpu0_L1I WRITEBACK ACCESS:          0  HIT:          0  MISS:          0
cpu0_L1I TRANSLATION ACCESS:          0  HIT:          0  MISS:          0
cpu0_L1I PREFETCH  REQUESTED:          0  ISSUED:          0  USEFUL:          0  USELESS:          0
cpu0_L1I AVERAGE MISS LATENCY: 196 cycles
cpu0_STLB TOTAL     ACCESS:     175170  HIT:          0  MISS:     175170
cpu0_STLB LOAD      ACCESS:     173029  HIT:          0  MISS:     173029
cpu0_STLB RFO       ACCESS:       2141  HIT:          0  MISS:       2141
cpu0_STLB PREFETCH  ACCESS:          0  HIT:          0  MISS:          0
cpu0_STLB WRITEBACK ACCESS:          0  HIT:          0  MISS:          0
cpu0_STLB TRANSLATION ACCESS:          0  HIT:          0  MISS:          0
cpu0_STLB PREFETCH  REQUESTED:          0  ISSUED:          0  USEFUL:          0  USELESS:          0
cpu0_STLB AVERAGE MISS LATENCY: 96.4685 cycles
cpu0_L1D TOTAL     ACCESS:   28448958  HIT:   26631470  MISS:    1817488
cpu0_L1D LOAD      ACCESS:    6443462  HIT:    4762872  MISS:    1680590
cpu0_L1D RFO       ACCESS:   21830329  HIT:   21693482  MISS:     136847
cpu0_L1D PREFETCH  ACCESS:          0  HIT:          0  MISS:          0
cpu0_L1D WRITEBACK ACCESS:          0  HIT:          0  MISS:          0
cpu0_L1D TRANSLATION ACCESS:     175167  HIT:     175116  MISS:         51
cpu0_L1D PREFETCH  REQUESTED:          0  ISSUED:          0  USEFUL:          0  USELESS:          0
cpu0_L1D AVERAGE MISS LATENCY: 389.279 cycles
cpu0_L2C TOTAL     ACCESS:    2676936  HIT:     859383  MISS:    1817553
cpu0_L2C LOAD      ACCESS:    1680641  HIT:          0  MISS:    1680641
cpu0_L2C RFO       ACCESS:     136847  HIT:          0  MISS:     136847
cpu0_L2C PREFETCH  ACCESS:          0  HIT:          0  MISS:          0
cpu0_L2C WRITEBACK ACCESS:     859397  HIT:     859383  MISS:         14
cpu0_L2C TRANSLATION ACCESS:         51  HIT:          0  MISS:         51
cpu0_L2C PREFETCH  REQUESTED:          0  ISSUED:          0  USEFUL:          0  USELESS:          0
cpu0_L2C AVERAGE MISS LATENCY: 378.223 cycles
LLC TOTAL     ACCESS:    2673600  HIT:      31538  MISS:    2642062
LLC LOAD      ACCESS:    1680641  HIT:       8787  MISS:    1671854
LLC RFO       ACCESS:     136847  HIT:       1149  MISS:     135698
LLC PREFETCH  ACCESS:          0  HIT:          0  MISS:          0
LLC WRITEBACK ACCESS:     856061  HIT:      21598  MISS:     834463
LLC TRANSLATION ACCESS:         51  HIT:          4  MISS:         47
LLC PREFETCH  REQUESTED:          0  ISSUED:          0  USEFUL:          0  USELESS:          0
LLC AVERAGE MISS LATENCY: 245.745 cycles
Insertion Distribution: 
	LOAD 218 0 59570 1843319 
	RFO 8526 0 24588 243596 
	PREF 0 0 0 0 
	WRITEBACK 0 0 0 986169 
	 0 0 23 46 
Total Prefetch Downgrades: 0

DRAM Statistics
 CHANNEL 0
 RQ ROW_BUFFER_HIT:     233936  ROW_BUFFER_MISS:    1573586
 DBUS AVG_CONGESTED_CYCLE:    3.97021
 WQ ROW_BUFFER_HIT:      51921  ROW_BUFFER_MISS:     789735  FULL:        974


CPU 0 Branch Prediction Accuracy: 99.9987% MPKI: 0.00058 Average ROB Occupancy at Mispredict: 57.0517
Branch type MPKI
BRANCH_DIRECT_JUMP: 0.0001
BRANCH_INDIRECT: 0
BRANCH_CONDITIONAL: 0.00033
BRANCH_DIRECT_CALL: 8e-05
BRANCH_INDIRECT_CALL: 0
BRANCH_RETURN: 7e-05

