
*** ChampSim Multicore Out-of-Order Simulator ***

Warmup Instructions: 10000000
Simulation Instructions: 100000000
Number of CPUs: 1
Off-chip DRAM Size: 4 GiB Channels: 1 Width: 64-bit Data Rate: 3200 MT/s

VirtualMemory physical capacity: 8588881920 num_ppages: 2096895
VirtualMemory page size: 4096 log2_page_size: 12

CPU 0 runs /datasets/cs240c-wi22-a00-public/data/Assignment2/cactusADM_1039B.trace.xz
CPU 0 Bimodal branch predictor
Basic BTB sets: 1024 ways: 8 indirect buffer size: 4096 RAS size: 64
Initialize SRRIP state
Heartbeat CPU 0 instructions: 10000004 cycles: 3647107 heartbeat IPC: 2.7419 cumulative IPC: 2.7419 (Simulation time: 0 hr 0 min 52 sec) 

Warmup complete CPU 0 instructions: 10000004 cycles: 3647107 (Simulation time: 0 hr 0 min 52 sec) 

Heartbeat CPU 0 instructions: 20000004 cycles: 13526213 heartbeat IPC: 1.01224 cumulative IPC: 1.01224 (Simulation time: 0 hr 2 min 23 sec) 
Heartbeat CPU 0 instructions: 30000000 cycles: 22834958 heartbeat IPC: 1.07426 cumulative IPC: 1.04233 (Simulation time: 0 hr 3 min 47 sec) 
Heartbeat CPU 0 instructions: 40000000 cycles: 32300592 heartbeat IPC: 1.05645 cumulative IPC: 1.04699 (Simulation time: 0 hr 5 min 21 sec) 
Heartbeat CPU 0 instructions: 50000004 cycles: 41144715 heartbeat IPC: 1.13069 cumulative IPC: 1.06673 (Simulation time: 0 hr 6 min 47 sec) 
Heartbeat CPU 0 instructions: 60000002 cycles: 47145913 heartbeat IPC: 1.66633 cumulative IPC: 1.14946 (Simulation time: 0 hr 8 min 0 sec) 
Heartbeat CPU 0 instructions: 70000002 cycles: 55779106 heartbeat IPC: 1.15832 cumulative IPC: 1.15092 (Simulation time: 0 hr 9 min 24 sec) 
Heartbeat CPU 0 instructions: 80000004 cycles: 64531694 heartbeat IPC: 1.14252 cumulative IPC: 1.14972 (Simulation time: 0 hr 10 min 44 sec) 
Heartbeat CPU 0 instructions: 90000004 cycles: 73109221 heartbeat IPC: 1.16584 cumulative IPC: 1.15171 (Simulation time: 0 hr 12 min 5 sec) 
Heartbeat CPU 0 instructions: 100000000 cycles: 79064157 heartbeat IPC: 1.67928 cumulative IPC: 1.19336 (Simulation time: 0 hr 13 min 14 sec) 
Heartbeat CPU 0 instructions: 110000003 cycles: 87614439 heartbeat IPC: 1.16955 cumulative IPC: 1.19094 (Simulation time: 0 hr 14 min 38 sec) 
Finished CPU 0 instructions: 100000004 cycles: 83967333 cumulative IPC: 1.19094 (Simulation time: 0 hr 14 min 38 sec) 

ChampSim completed all CPUs

Region of Interest Statistics

CPU 0 cumulative IPC: 1.19094 instructions: 100000004 cycles: 83967333
cpu0_DTLB TOTAL     ACCESS:   22823244  HIT:   20772951  MISS:    2050293
cpu0_DTLB LOAD      ACCESS:   18909304  HIT:   17475392  MISS:    1433912
cpu0_DTLB RFO       ACCESS:    3913940  HIT:    3297559  MISS:     616381
cpu0_DTLB PREFETCH  ACCESS:          0  HIT:          0  MISS:          0
cpu0_DTLB WRITEBACK ACCESS:          0  HIT:          0  MISS:          0
cpu0_DTLB TRANSLATION ACCESS:          0  HIT:          0  MISS:          0
cpu0_DTLB PREFETCH  REQUESTED:          0  ISSUED:          0  USEFUL:          0  USELESS:          0
cpu0_DTLB AVERAGE MISS LATENCY: 16.5776 cycles
cpu0_ITLB TOTAL     ACCESS:    1451298  HIT:    1451298  MISS:          0
cpu0_ITLB LOAD      ACCESS:    1451298  HIT:    1451298  MISS:          0
cpu0_ITLB RFO       ACCESS:          0  HIT:          0  MISS:          0
cpu0_ITLB PREFETCH  ACCESS:          0  HIT:          0  MISS:          0
cpu0_ITLB WRITEBACK ACCESS:          0  HIT:          0  MISS:          0
cpu0_ITLB TRANSLATION ACCESS:          0  HIT:          0  MISS:          0
cpu0_ITLB PREFETCH  REQUESTED:          0  ISSUED:          0  USEFUL:          0  USELESS:          0
cpu0_ITLB AVERAGE MISS LATENCY: -nan cycles
cpu0_L1I TOTAL     ACCESS:    8114794  HIT:    8114791  MISS:          3
cpu0_L1I LOAD      ACCESS:    8114794  HIT:    8114791  MISS:          3
cpu0_L1I RFO       ACCESS:          0  HIT:          0  MISS:          0
cpu0_L1I PREFETCH  ACCESS:          0  HIT:          0  MISS:          0
cpu0_L1I WRITEBACK ACCESS:          0  HIT:          0  MISS:          0
cpu0_L1I TRANSLATION ACCESS:          0  HIT:          0  MISS:          0
cpu0_L1I PREFETCH  REQUESTED:          0  ISSUED:          0  USEFUL:          0  USELESS:          0
cpu0_L1I AVERAGE MISS LATENCY: 589 cycles
cpu0_STLB TOTAL     ACCESS:    2050293  HIT:    1131254  MISS:     919039
cpu0_STLB LOAD      ACCESS:    1433912  HIT:     836746  MISS:     597166
cpu0_STLB RFO       ACCESS:     616381  HIT:     294508  MISS:     321873
cpu0_STLB PREFETCH  ACCESS:          0  HIT:          0  MISS:          0
cpu0_STLB WRITEBACK ACCESS:          0  HIT:          0  MISS:          0
cpu0_STLB TRANSLATION ACCESS:          0  HIT:          0  MISS:          0
cpu0_STLB PREFETCH  REQUESTED:          0  ISSUED:          0  USEFUL:          0  USELESS:          0
cpu0_STLB AVERAGE MISS LATENCY: 16.7459 cycles
cpu0_L1D TOTAL     ACCESS:   37572370  HIT:   36248643  MISS:    1323727
cpu0_L1D LOAD      ACCESS:   25696308  HIT:   24643899  MISS:    1052409
cpu0_L1D RFO       ACCESS:   10957864  HIT:   10692492  MISS:     265372
cpu0_L1D PREFETCH  ACCESS:          0  HIT:          0  MISS:          0
cpu0_L1D WRITEBACK ACCESS:          0  HIT:          0  MISS:          0
cpu0_L1D TRANSLATION ACCESS:     918198  HIT:     912252  MISS:       5946
cpu0_L1D PREFETCH  REQUESTED:          0  ISSUED:          0  USEFUL:          0  USELESS:          0
cpu0_L1D AVERAGE MISS LATENCY: 305.74 cycles
cpu0_L2C TOTAL     ACCESS:    1592999  HIT:     694181  MISS:     898818
cpu0_L2C LOAD      ACCESS:    1052411  HIT:     419486  MISS:     632925
cpu0_L2C RFO       ACCESS:     265372  HIT:          1  MISS:     265371
cpu0_L2C PREFETCH  ACCESS:          0  HIT:          0  MISS:          0
cpu0_L2C WRITEBACK ACCESS:     269270  HIT:     269056  MISS:        214
cpu0_L2C TRANSLATION ACCESS:       5946  HIT:       5638  MISS:        308
cpu0_L2C PREFETCH  REQUESTED:          0  ISSUED:          0  USEFUL:          0  USELESS:          0
cpu0_L2C AVERAGE MISS LATENCY: 434.059 cycles
LLC TOTAL     ACCESS:    1165769  HIT:     345000  MISS:     820769
LLC LOAD      ACCESS:     632925  HIT:     165966  MISS:     466959
LLC RFO       ACCESS:     265371  HIT:      71738  MISS:     193633
LLC PREFETCH  ACCESS:          0  HIT:          0  MISS:          0
LLC WRITEBACK ACCESS:     267165  HIT:     107243  MISS:     159922
LLC TRANSLATION ACCESS:        308  HIT:         53  MISS:        255
LLC PREFETCH  REQUESTED:          0  ISSUED:          0  USEFUL:          0  USELESS:          0
LLC AVERAGE MISS LATENCY: 452.342 cycles
Insertion Distribution: 
	LOAD 45353 0 71470 400212 
	RFO 13590 0 25591 165733 
	PREF 0 0 0 0 
	WRITEBACK 0 0 0 162263 
	 1 0 59 237 
Total Prefetch Downgrades: 0

DRAM Statistics
 CHANNEL 0
 RQ ROW_BUFFER_HIT:       6359  ROW_BUFFER_MISS:     654472
 DBUS AVG_CONGESTED_CYCLE:    3.97548
 WQ ROW_BUFFER_HIT:      16882  ROW_BUFFER_MISS:     203106  FULL:        488


CPU 0 Branch Prediction Accuracy: 97.7479% MPKI: 0.04701 Average ROB Occupancy at Mispredict: 284.03
Branch type MPKI
BRANCH_DIRECT_JUMP: 0
BRANCH_INDIRECT: 0
BRANCH_CONDITIONAL: 0.04701
BRANCH_DIRECT_CALL: 0
BRANCH_INDIRECT_CALL: 0
BRANCH_RETURN: 0

