
*** ChampSim Multicore Out-of-Order Simulator ***

Warmup Instructions: 10000000
Simulation Instructions: 100000000
Number of CPUs: 1
Off-chip DRAM Size: 4 GiB Channels: 1 Width: 64-bit Data Rate: 3200 MT/s

VirtualMemory physical capacity: 8588881920 num_ppages: 2096895
VirtualMemory page size: 4096 log2_page_size: 12

CPU 0 runs /datasets/cs240c-wi22-a00-public/data/Assignment2/cactusADM_1495B.trace.xz
CPU 0 Bimodal branch predictor
Basic BTB sets: 1024 ways: 8 indirect buffer size: 4096 RAS size: 64
Initialize SRRIP state
Heartbeat CPU 0 instructions: 10000001 cycles: 3702088 heartbeat IPC: 2.70118 cumulative IPC: 2.70118 (Simulation time: 0 hr 1 min 3 sec) 

Warmup complete CPU 0 instructions: 10000001 cycles: 3702088 (Simulation time: 0 hr 1 min 3 sec) 

Heartbeat CPU 0 instructions: 20000001 cycles: 11234899 heartbeat IPC: 1.32753 cumulative IPC: 1.32753 (Simulation time: 0 hr 2 min 43 sec) 
Heartbeat CPU 0 instructions: 30000003 cycles: 20078736 heartbeat IPC: 1.13073 cumulative IPC: 1.22125 (Simulation time: 0 hr 4 min 28 sec) 
Heartbeat CPU 0 instructions: 40000001 cycles: 29827510 heartbeat IPC: 1.02577 cumulative IPC: 1.14831 (Simulation time: 0 hr 6 min 17 sec) 
Heartbeat CPU 0 instructions: 50000000 cycles: 38770814 heartbeat IPC: 1.11815 cumulative IPC: 1.14062 (Simulation time: 0 hr 8 min 2 sec) 
Heartbeat CPU 0 instructions: 60000003 cycles: 45872731 heartbeat IPC: 1.40807 cumulative IPC: 1.18566 (Simulation time: 0 hr 9 min 36 sec) 
Heartbeat CPU 0 instructions: 70000000 cycles: 54261637 heartbeat IPC: 1.19205 cumulative IPC: 1.18672 (Simulation time: 0 hr 11 min 17 sec) 
Heartbeat CPU 0 instructions: 80000003 cycles: 63007925 heartbeat IPC: 1.14334 cumulative IPC: 1.18032 (Simulation time: 0 hr 13 min 0 sec) 
Heartbeat CPU 0 instructions: 90000002 cycles: 71830362 heartbeat IPC: 1.13347 cumulative IPC: 1.17426 (Simulation time: 0 hr 14 min 43 sec) 
Heartbeat CPU 0 instructions: 100000002 cycles: 80516279 heartbeat IPC: 1.15129 cumulative IPC: 1.17166 (Simulation time: 0 hr 16 min 27 sec) 
Heartbeat CPU 0 instructions: 110000004 cycles: 86399885 heartbeat IPC: 1.69964 cumulative IPC: 1.20922 (Simulation time: 0 hr 17 min 54 sec) 
Finished CPU 0 instructions: 100000003 cycles: 82697797 cumulative IPC: 1.20922 (Simulation time: 0 hr 17 min 54 sec) 

ChampSim completed all CPUs

Region of Interest Statistics

CPU 0 cumulative IPC: 1.20922 instructions: 100000003 cycles: 82697797
cpu0_DTLB TOTAL     ACCESS:   21492635  HIT:   19718584  MISS:    1774051
cpu0_DTLB LOAD      ACCESS:   17675533  HIT:   16464838  MISS:    1210695
cpu0_DTLB RFO       ACCESS:    3817102  HIT:    3253746  MISS:     563356
cpu0_DTLB PREFETCH  ACCESS:          0  HIT:          0  MISS:          0
cpu0_DTLB WRITEBACK ACCESS:          0  HIT:          0  MISS:          0
cpu0_DTLB TRANSLATION ACCESS:          0  HIT:          0  MISS:          0
cpu0_DTLB PREFETCH  REQUESTED:          0  ISSUED:          0  USEFUL:          0  USELESS:          0
cpu0_DTLB AVERAGE MISS LATENCY: 17.3996 cycles
cpu0_ITLB TOTAL     ACCESS:    1614410  HIT:    1614410  MISS:          0
cpu0_ITLB LOAD      ACCESS:    1614410  HIT:    1614410  MISS:          0
cpu0_ITLB RFO       ACCESS:          0  HIT:          0  MISS:          0
cpu0_ITLB PREFETCH  ACCESS:          0  HIT:          0  MISS:          0
cpu0_ITLB WRITEBACK ACCESS:          0  HIT:          0  MISS:          0
cpu0_ITLB TRANSLATION ACCESS:          0  HIT:          0  MISS:          0
cpu0_ITLB PREFETCH  REQUESTED:          0  ISSUED:          0  USEFUL:          0  USELESS:          0
cpu0_ITLB AVERAGE MISS LATENCY: -nan cycles
cpu0_L1I TOTAL     ACCESS:    8434482  HIT:    8434482  MISS:          0
cpu0_L1I LOAD      ACCESS:    8434482  HIT:    8434482  MISS:          0
cpu0_L1I RFO       ACCESS:          0  HIT:          0  MISS:          0
cpu0_L1I PREFETCH  ACCESS:          0  HIT:          0  MISS:          0
cpu0_L1I WRITEBACK ACCESS:          0  HIT:          0  MISS:          0
cpu0_L1I TRANSLATION ACCESS:          0  HIT:          0  MISS:          0
cpu0_L1I PREFETCH  REQUESTED:          0  ISSUED:          0  USEFUL:          0  USELESS:          0
cpu0_L1I AVERAGE MISS LATENCY: -nan cycles
cpu0_STLB TOTAL     ACCESS:    1774051  HIT:     908880  MISS:     865171
cpu0_STLB LOAD      ACCESS:    1210695  HIT:     650928  MISS:     559767
cpu0_STLB RFO       ACCESS:     563356  HIT:     257952  MISS:     305404
cpu0_STLB PREFETCH  ACCESS:          0  HIT:          0  MISS:          0
cpu0_STLB WRITEBACK ACCESS:          0  HIT:          0  MISS:          0
cpu0_STLB TRANSLATION ACCESS:          0  HIT:          0  MISS:          0
cpu0_STLB PREFETCH  REQUESTED:          0  ISSUED:          0  USEFUL:          0  USELESS:          0
cpu0_STLB AVERAGE MISS LATENCY: 17.0982 cycles
cpu0_L1D TOTAL     ACCESS:   37491115  HIT:   36202899  MISS:    1288216
cpu0_L1D LOAD      ACCESS:   25716861  HIT:   24680790  MISS:    1036071
cpu0_L1D RFO       ACCESS:   10909776  HIT:   10664544  MISS:     245232
cpu0_L1D PREFETCH  ACCESS:          0  HIT:          0  MISS:          0
cpu0_L1D WRITEBACK ACCESS:          0  HIT:          0  MISS:          0
cpu0_L1D TRANSLATION ACCESS:     864478  HIT:     857565  MISS:       6913
cpu0_L1D PREFETCH  REQUESTED:          0  ISSUED:          0  USEFUL:          0  USELESS:          0
cpu0_L1D AVERAGE MISS LATENCY: 302.569 cycles
cpu0_L2C TOTAL     ACCESS:    1536998  HIT:     676840  MISS:     860158
cpu0_L2C LOAD      ACCESS:    1036071  HIT:     421647  MISS:     614424
cpu0_L2C RFO       ACCESS:     245232  HIT:          0  MISS:     245232
cpu0_L2C PREFETCH  ACCESS:          0  HIT:          0  MISS:          0
cpu0_L2C WRITEBACK ACCESS:     248782  HIT:     248594  MISS:        188
cpu0_L2C TRANSLATION ACCESS:       6913  HIT:       6599  MISS:        314
cpu0_L2C PREFETCH  REQUESTED:          0  ISSUED:          0  USEFUL:          0  USELESS:          0
cpu0_L2C AVERAGE MISS LATENCY: 436.65 cycles
LLC TOTAL     ACCESS:    1105578  HIT:     320777  MISS:     784801
LLC LOAD      ACCESS:     614424  HIT:     167481  MISS:     446943
LLC RFO       ACCESS:     245232  HIT:      58147  MISS:     187085
LLC PREFETCH  ACCESS:          0  HIT:          0  MISS:          0
LLC WRITEBACK ACCESS:     245608  HIT:      95122  MISS:     150486
LLC TRANSLATION ACCESS:        314  HIT:         27  MISS:        287
LLC PREFETCH  REQUESTED:          0  ISSUED:          0  USEFUL:          0  USELESS:          0
LLC AVERAGE MISS LATENCY: 455.565 cycles
Insertion Distribution: 
	LOAD 38474 0 70923 404934 
	RFO 29747 0 24353 163641 
	PREF 0 0 0 0 
	WRITEBACK 0 0 0 160221 
	 1 0 64 272 
Total Prefetch Downgrades: 0

DRAM Statistics
 CHANNEL 0
 RQ ROW_BUFFER_HIT:       5779  ROW_BUFFER_MISS:     628526
 DBUS AVG_CONGESTED_CYCLE:    3.97666
 WQ ROW_BUFFER_HIT:      16177  ROW_BUFFER_MISS:     193433  FULL:         87


CPU 0 Branch Prediction Accuracy: 97.8411% MPKI: 0.04284 Average ROB Occupancy at Mispredict: 285.466
Branch type MPKI
BRANCH_DIRECT_JUMP: 0
BRANCH_INDIRECT: 0
BRANCH_CONDITIONAL: 0.04284
BRANCH_DIRECT_CALL: 0
BRANCH_INDIRECT_CALL: 0
BRANCH_RETURN: 0

