
*** ChampSim Multicore Out-of-Order Simulator ***

Warmup Instructions: 10000000
Simulation Instructions: 100000000
Number of CPUs: 1
Off-chip DRAM Size: 4 GiB Channels: 1 Width: 64-bit Data Rate: 3200 MT/s

VirtualMemory physical capacity: 8588881920 num_ppages: 2096895
VirtualMemory page size: 4096 log2_page_size: 12

CPU 0 runs /datasets/cs240c-wi22-a00-public/data/Assignment2/lbm_94B.trace.xz
CPU 0 Bimodal branch predictor
Basic BTB sets: 1024 ways: 8 indirect buffer size: 4096 RAS size: 64
Initialize SRRIP state
Heartbeat CPU 0 instructions: 10000001 cycles: 2544771 heartbeat IPC: 3.92963 cumulative IPC: 3.92963 (Simulation time: 0 hr 0 min 30 sec) 

Warmup complete CPU 0 instructions: 10000001 cycles: 2544771 (Simulation time: 0 hr 0 min 30 sec) 

Heartbeat CPU 0 instructions: 20000000 cycles: 40383001 heartbeat IPC: 0.264283 cumulative IPC: 0.264283 (Simulation time: 0 hr 3 min 22 sec) 
Heartbeat CPU 0 instructions: 30000004 cycles: 77673154 heartbeat IPC: 0.268167 cumulative IPC: 0.266211 (Simulation time: 0 hr 6 min 25 sec) 
Heartbeat CPU 0 instructions: 40000000 cycles: 114009288 heartbeat IPC: 0.275208 cumulative IPC: 0.269144 (Simulation time: 0 hr 9 min 22 sec) 
Heartbeat CPU 0 instructions: 50000001 cycles: 149494840 heartbeat IPC: 0.281805 cumulative IPC: 0.272201 (Simulation time: 0 hr 12 min 13 sec) 
Heartbeat CPU 0 instructions: 60000003 cycles: 183684107 heartbeat IPC: 0.292489 cumulative IPC: 0.276031 (Simulation time: 0 hr 14 min 59 sec) 
Heartbeat CPU 0 instructions: 70000001 cycles: 218084082 heartbeat IPC: 0.290698 cumulative IPC: 0.278371 (Simulation time: 0 hr 17 min 45 sec) 
Heartbeat CPU 0 instructions: 80000003 cycles: 252311282 heartbeat IPC: 0.292165 cumulative IPC: 0.280262 (Simulation time: 0 hr 20 min 31 sec) 
Heartbeat CPU 0 instructions: 90000003 cycles: 286860420 heartbeat IPC: 0.289443 cumulative IPC: 0.281377 (Simulation time: 0 hr 23 min 16 sec) 
Heartbeat CPU 0 instructions: 100000001 cycles: 321353971 heartbeat IPC: 0.289909 cumulative IPC: 0.282301 (Simulation time: 0 hr 26 min 1 sec) 
Heartbeat CPU 0 instructions: 110000003 cycles: 355897409 heartbeat IPC: 0.289491 cumulative IPC: 0.283003 (Simulation time: 0 hr 28 min 45 sec) 
Finished CPU 0 instructions: 100000002 cycles: 353352638 cumulative IPC: 0.283003 (Simulation time: 0 hr 28 min 45 sec) 

ChampSim completed all CPUs

Region of Interest Statistics

CPU 0 cumulative IPC: 0.283003 instructions: 100000002 cycles: 353352638
cpu0_DTLB TOTAL     ACCESS:   13212455  HIT:   13164705  MISS:      47750
cpu0_DTLB LOAD      ACCESS:    6755455  HIT:    6743509  MISS:      11946
cpu0_DTLB RFO       ACCESS:    6457000  HIT:    6421196  MISS:      35804
cpu0_DTLB PREFETCH  ACCESS:          0  HIT:          0  MISS:          0
cpu0_DTLB WRITEBACK ACCESS:          0  HIT:          0  MISS:          0
cpu0_DTLB TRANSLATION ACCESS:          0  HIT:          0  MISS:          0
cpu0_DTLB PREFETCH  REQUESTED:          0  ISSUED:          0  USEFUL:          0  USELESS:          0
cpu0_DTLB AVERAGE MISS LATENCY: 250.859 cycles
cpu0_ITLB TOTAL     ACCESS:     123326  HIT:     123326  MISS:          0
cpu0_ITLB LOAD      ACCESS:     123326  HIT:     123326  MISS:          0
cpu0_ITLB RFO       ACCESS:          0  HIT:          0  MISS:          0
cpu0_ITLB PREFETCH  ACCESS:          0  HIT:          0  MISS:          0
cpu0_ITLB WRITEBACK ACCESS:          0  HIT:          0  MISS:          0
cpu0_ITLB TRANSLATION ACCESS:          0  HIT:          0  MISS:          0
cpu0_ITLB PREFETCH  REQUESTED:          0  ISSUED:          0  USEFUL:          0  USELESS:          0
cpu0_ITLB AVERAGE MISS LATENCY: -nan cycles
cpu0_STLB TOTAL     ACCESS:      47750  HIT:          0  MISS:      47750
cpu0_STLB LOAD      ACCESS:      11946  HIT:          0  MISS:      11946
cpu0_STLB RFO       ACCESS:      35804  HIT:          0  MISS:      35804
cpu0_STLB PREFETCH  ACCESS:          0  HIT:          0  MISS:          0
cpu0_STLB WRITEBACK ACCESS:          0  HIT:          0  MISS:          0
cpu0_STLB TRANSLATION ACCESS:          0  HIT:          0  MISS:          0
cpu0_STLB PREFETCH  REQUESTED:          0  ISSUED:          0  USEFUL:          0  USELESS:          0
cpu0_STLB AVERAGE MISS LATENCY: 241.859 cycles
cpu0_L1D TOTAL     ACCESS:   14655544  HIT:    9617018  MISS:    5038526
cpu0_L1D LOAD      ACCESS:    4301398  HIT:    3537925  MISS:     763473
cpu0_L1D RFO       ACCESS:   10306396  HIT:    6031388  MISS:    4275008
cpu0_L1D PREFETCH  ACCESS:          0  HIT:          0  MISS:          0
cpu0_L1D WRITEBACK ACCESS:          0  HIT:          0  MISS:          0
cpu0_L1D TRANSLATION ACCESS:      47750  HIT:      47705  MISS:         45
cpu0_L1D PREFETCH  REQUESTED:          0  ISSUED:          0  USEFUL:          0  USELESS:          0
cpu0_L1D AVERAGE MISS LATENCY: 487.258 cycles
cpu0_L2C TOTAL     ACCESS:    9313533  HIT:    6258414  MISS:    3055119
cpu0_L2C LOAD      ACCESS:     763473  HIT:          3  MISS:     763470
cpu0_L2C RFO       ACCESS:    4275008  HIT:    1983500  MISS:    2291508
cpu0_L2C PREFETCH  ACCESS:          0  HIT:          0  MISS:          0
cpu0_L2C WRITEBACK ACCESS:    4275007  HIT:    4274911  MISS:         96
cpu0_L2C TRANSLATION ACCESS:         45  HIT:          0  MISS:         45
cpu0_L2C PREFETCH  REQUESTED:          0  ISSUED:          0  USEFUL:          0  USELESS:          0
cpu0_L2C AVERAGE MISS LATENCY: 783.97 cycles
LLC TOTAL     ACCESS:    5346806  HIT:    1128588  MISS:    4218218
LLC LOAD      ACCESS:     763470  HIT:         89  MISS:     763381
LLC RFO       ACCESS:    2291508  HIT:     261434  MISS:    2030074
LLC PREFETCH  ACCESS:          0  HIT:          0  MISS:          0
LLC WRITEBACK ACCESS:    2291783  HIT:     867045  MISS:    1424738
LLC TRANSLATION ACCESS:         45  HIT:         20  MISS:         25
LLC PREFETCH  REQUESTED:          0  ISSUED:          0  USEFUL:          0  USELESS:          0
LLC AVERAGE MISS LATENCY: 552.595 cycles
Insertion Distribution: 
	LOAD 0 0 11966 837213 
	RFO 40090 0 637706 1581941 
	PREF 0 0 0 0 
	WRITEBACK 0 0 0 1573545 
	 0 0 33 5 
Total Prefetch Downgrades: 0

DRAM Statistics
 CHANNEL 0
 RQ ROW_BUFFER_HIT:      44573  ROW_BUFFER_MISS:    2748446
 DBUS AVG_CONGESTED_CYCLE:    3.99702
 WQ ROW_BUFFER_HIT:      20529  ROW_BUFFER_MISS:    2009254  FULL:          0


CPU 0 Branch Prediction Accuracy: 99.132% MPKI: 0.10209 Average ROB Occupancy at Mispredict: 173.635
Branch type MPKI
BRANCH_DIRECT_JUMP: 0
BRANCH_INDIRECT: 0
BRANCH_CONDITIONAL: 0.10209
BRANCH_DIRECT_CALL: 0
BRANCH_INDIRECT_CALL: 0
BRANCH_RETURN: 0

