
*** ChampSim Multicore Out-of-Order Simulator ***

Warmup Instructions: 10000000
Simulation Instructions: 100000000
Number of CPUs: 1
Off-chip DRAM Size: 4 GiB Channels: 1 Width: 64-bit Data Rate: 3200 MT/s

VirtualMemory physical capacity: 8588881920 num_ppages: 2096895
VirtualMemory page size: 4096 log2_page_size: 12

CPU 0 runs /datasets/cs240c-wi22-a00-public/data/Assignment2/omnetpp_4B.trace.xz
CPU 0 Bimodal branch predictor
Basic BTB sets: 1024 ways: 8 indirect buffer size: 4096 RAS size: 64
Initialize SRRIP state
Heartbeat CPU 0 instructions: 10000002 cycles: 2526526 heartbeat IPC: 3.958 cumulative IPC: 3.958 (Simulation time: 0 hr 0 min 27 sec) 

Warmup complete CPU 0 instructions: 10000002 cycles: 2526526 (Simulation time: 0 hr 0 min 27 sec) 

Heartbeat CPU 0 instructions: 20000000 cycles: 9026641 heartbeat IPC: 1.53843 cumulative IPC: 1.53843 (Simulation time: 0 hr 1 min 5 sec) 
Heartbeat CPU 0 instructions: 30000001 cycles: 15648842 heartbeat IPC: 1.51007 cumulative IPC: 1.52412 (Simulation time: 0 hr 1 min 47 sec) 
Heartbeat CPU 0 instructions: 40000002 cycles: 22317075 heartbeat IPC: 1.49965 cumulative IPC: 1.51588 (Simulation time: 0 hr 2 min 30 sec) 
Heartbeat CPU 0 instructions: 50000000 cycles: 29109992 heartbeat IPC: 1.47212 cumulative IPC: 1.50469 (Simulation time: 0 hr 3 min 11 sec) 
Heartbeat CPU 0 instructions: 60000000 cycles: 35734163 heartbeat IPC: 1.50962 cumulative IPC: 1.50568 (Simulation time: 0 hr 3 min 54 sec) 
Heartbeat CPU 0 instructions: 70000000 cycles: 42357915 heartbeat IPC: 1.50972 cumulative IPC: 1.50635 (Simulation time: 0 hr 4 min 34 sec) 
Heartbeat CPU 0 instructions: 80000000 cycles: 48887909 heartbeat IPC: 1.53139 cumulative IPC: 1.50988 (Simulation time: 0 hr 5 min 16 sec) 
Heartbeat CPU 0 instructions: 90000000 cycles: 55743892 heartbeat IPC: 1.45858 cumulative IPC: 1.50327 (Simulation time: 0 hr 6 min 1 sec) 
Heartbeat CPU 0 instructions: 100000001 cycles: 62088786 heartbeat IPC: 1.57607 cumulative IPC: 1.51102 (Simulation time: 0 hr 6 min 39 sec) 
Heartbeat CPU 0 instructions: 110000002 cycles: 68763894 heartbeat IPC: 1.4981 cumulative IPC: 1.50972 (Simulation time: 0 hr 7 min 21 sec) 
Finished CPU 0 instructions: 100000000 cycles: 66237368 cumulative IPC: 1.50972 (Simulation time: 0 hr 7 min 21 sec) 

ChampSim completed all CPUs

Region of Interest Statistics

CPU 0 cumulative IPC: 1.50972 instructions: 100000000 cycles: 66237368
cpu0_DTLB TOTAL     ACCESS:   11665024  HIT:   10233166  MISS:    1431858
cpu0_DTLB LOAD      ACCESS:    9078585  HIT:    7648288  MISS:    1430297
cpu0_DTLB RFO       ACCESS:    2586439  HIT:    2584878  MISS:       1561
cpu0_DTLB PREFETCH  ACCESS:          0  HIT:          0  MISS:          0
cpu0_DTLB WRITEBACK ACCESS:          0  HIT:          0  MISS:          0
cpu0_DTLB TRANSLATION ACCESS:          0  HIT:          0  MISS:          0
cpu0_DTLB PREFETCH  REQUESTED:          0  ISSUED:          0  USEFUL:          0  USELESS:          0
cpu0_DTLB AVERAGE MISS LATENCY: 17.6396 cycles
cpu0_ITLB TOTAL     ACCESS:    7987480  HIT:    7963313  MISS:      24167
cpu0_ITLB LOAD      ACCESS:    7987480  HIT:    7963313  MISS:      24167
cpu0_ITLB RFO       ACCESS:          0  HIT:          0  MISS:          0
cpu0_ITLB PREFETCH  ACCESS:          0  HIT:          0  MISS:          0
cpu0_ITLB WRITEBACK ACCESS:          0  HIT:          0  MISS:          0
cpu0_ITLB TRANSLATION ACCESS:          0  HIT:          0  MISS:          0
cpu0_ITLB PREFETCH  REQUESTED:          0  ISSUED:          0  USEFUL:          0  USELESS:          0
cpu0_ITLB AVERAGE MISS LATENCY: 10.8423 cycles
cpu0_L1I TOTAL     ACCESS:    1939664  HIT:    1876722  MISS:      62942
cpu0_L1I LOAD      ACCESS:    1939664  HIT:    1876722  MISS:      62942
cpu0_L1I RFO       ACCESS:          0  HIT:          0  MISS:          0
cpu0_L1I PREFETCH  ACCESS:          0  HIT:          0  MISS:          0
cpu0_L1I WRITEBACK ACCESS:          0  HIT:          0  MISS:          0
cpu0_L1I TRANSLATION ACCESS:          0  HIT:          0  MISS:          0
cpu0_L1I PREFETCH  REQUESTED:          0  ISSUED:          0  USEFUL:          0  USELESS:          0
cpu0_L1I AVERAGE MISS LATENCY: 48.4392 cycles
cpu0_STLB TOTAL     ACCESS:    1456025  HIT:      23473  MISS:    1432552
cpu0_STLB LOAD      ACCESS:    1454464  HIT:      22729  MISS:    1431735
cpu0_STLB RFO       ACCESS:       1561  HIT:        744  MISS:        817
cpu0_STLB PREFETCH  ACCESS:          0  HIT:          0  MISS:          0
cpu0_STLB WRITEBACK ACCESS:          0  HIT:          0  MISS:          0
cpu0_STLB TRANSLATION ACCESS:          0  HIT:          0  MISS:          0
cpu0_STLB PREFETCH  REQUESTED:          0  ISSUED:          0  USEFUL:          0  USELESS:          0
cpu0_STLB AVERAGE MISS LATENCY: 8.22903 cycles
cpu0_L1D TOTAL     ACCESS:   12494474  HIT:   10004563  MISS:    2489911
cpu0_L1D LOAD      ACCESS:    7236433  HIT:    4785239  MISS:    2451194
cpu0_L1D RFO       ACCESS:    4654808  HIT:    4617082  MISS:      37726
cpu0_L1D PREFETCH  ACCESS:          0  HIT:          0  MISS:          0
cpu0_L1D WRITEBACK ACCESS:          0  HIT:          0  MISS:          0
cpu0_L1D TRANSLATION ACCESS:     603233  HIT:     602242  MISS:        991
cpu0_L1D PREFETCH  REQUESTED:          0  ISSUED:          0  USEFUL:          0  USELESS:          0
cpu0_L1D AVERAGE MISS LATENCY: 66.8896 cycles
cpu0_L2C TOTAL     ACCESS:    2633816  HIT:     114379  MISS:    2519437
cpu0_L2C LOAD      ACCESS:    2514135  HIT:      32424  MISS:    2481711
cpu0_L2C RFO       ACCESS:      37726  HIT:        795  MISS:      36931
cpu0_L2C PREFETCH  ACCESS:          0  HIT:          0  MISS:          0
cpu0_L2C WRITEBACK ACCESS:      80964  HIT:      80964  MISS:          0
cpu0_L2C TRANSLATION ACCESS:        991  HIT:        196  MISS:        795
cpu0_L2C PREFETCH  REQUESTED:          0  ISSUED:          0  USEFUL:          0  USELESS:          0
cpu0_L2C AVERAGE MISS LATENCY: 55.4554 cycles
LLC TOTAL     ACCESS:    2598990  HIT:    2337522  MISS:     261468
LLC LOAD      ACCESS:    2481709  HIT:    2241776  MISS:     239933
LLC RFO       ACCESS:      36931  HIT:      21237  MISS:      15694
LLC PREFETCH  ACCESS:          0  HIT:          0  MISS:          0
LLC WRITEBACK ACCESS:      79555  HIT:      73828  MISS:       5727
LLC TRANSLATION ACCESS:        795  HIT:        681  MISS:        114
LLC PREFETCH  REQUESTED:          0  ISSUED:          0  USEFUL:          0  USELESS:          0
LLC AVERAGE MISS LATENCY: 331.932 cycles
Insertion Distribution: 
	LOAD 87708 0 0 0 0 0 0 0 0 0 0 0 0 0 85966 125028 
	RFO 3182 0 0 0 0 0 0 0 0 0 0 0 0 0 4697 9634 
	PREF 0 0 0 0 0 0 0 0 0 0 0 0 0 0 0 0 
	WRITEBACK 0 0 0 0 0 0 0 0 0 0 0 0 0 0 0 6871 
	 21 0 0 0 0 0 0 0 0 0 0 0 0 0 98 18 
Total Prefetch Downgrades: 0

DRAM Statistics
 CHANNEL 0
 RQ ROW_BUFFER_HIT:      22920  ROW_BUFFER_MISS:     231823
 DBUS AVG_CONGESTED_CYCLE:    3.95807
 WQ ROW_BUFFER_HIT:       5221  ROW_BUFFER_MISS:      40675  FULL:          0


CPU 0 Branch Prediction Accuracy: 97.4293% MPKI: 8.26178 Average ROB Occupancy at Mispredict: 57.0074
Branch type MPKI
BRANCH_DIRECT_JUMP: 0.00037
BRANCH_INDIRECT: 0.12485
BRANCH_CONDITIONAL: 8.10493
BRANCH_DIRECT_CALL: 0.00326
BRANCH_INDIRECT_CALL: 0.00558
BRANCH_RETURN: 0.02279

