
*** ChampSim Multicore Out-of-Order Simulator ***

Warmup Instructions: 10000000
Simulation Instructions: 100000000
Number of CPUs: 1
Off-chip DRAM Size: 4 GiB Channels: 1 Width: 64-bit Data Rate: 3200 MT/s

VirtualMemory physical capacity: 8588881920 num_ppages: 2096895
VirtualMemory page size: 4096 log2_page_size: 12

CPU 0 runs /datasets/cs240c-wi22-a00-public/data/Assignment2/sphinx3_883B.trace.xz
CPU 0 Bimodal branch predictor
Basic BTB sets: 1024 ways: 8 indirect buffer size: 4096 RAS size: 64
Initialize SRRIP state
Heartbeat CPU 0 instructions: 10000004 cycles: 2628880 heartbeat IPC: 3.8039 cumulative IPC: 3.8039 (Simulation time: 0 hr 0 min 27 sec) 

Warmup complete CPU 0 instructions: 10000004 cycles: 2628880 (Simulation time: 0 hr 0 min 27 sec) 

Heartbeat CPU 0 instructions: 20000000 cycles: 15138147 heartbeat IPC: 0.799407 cumulative IPC: 0.799407 (Simulation time: 0 hr 1 min 22 sec) 
Heartbeat CPU 0 instructions: 30000000 cycles: 27825146 heartbeat IPC: 0.788208 cumulative IPC: 0.793768 (Simulation time: 0 hr 2 min 16 sec) 
Heartbeat CPU 0 instructions: 40000004 cycles: 39701520 heartbeat IPC: 0.842008 cumulative IPC: 0.809222 (Simulation time: 0 hr 3 min 10 sec) 
Heartbeat CPU 0 instructions: 50000003 cycles: 51283935 heartbeat IPC: 0.863378 cumulative IPC: 0.822114 (Simulation time: 0 hr 4 min 2 sec) 
Heartbeat CPU 0 instructions: 60000000 cycles: 61471826 heartbeat IPC: 0.981557 cumulative IPC: 0.849719 (Simulation time: 0 hr 4 min 52 sec) 
Heartbeat CPU 0 instructions: 70000001 cycles: 70574349 heartbeat IPC: 1.0986 cumulative IPC: 0.883061 (Simulation time: 0 hr 5 min 39 sec) 
Heartbeat CPU 0 instructions: 80000000 cycles: 80373377 heartbeat IPC: 1.02051 cumulative IPC: 0.900385 (Simulation time: 0 hr 6 min 26 sec) 
Heartbeat CPU 0 instructions: 90000002 cycles: 88582043 heartbeat IPC: 1.21823 cumulative IPC: 0.930739 (Simulation time: 0 hr 7 min 10 sec) 
Heartbeat CPU 0 instructions: 100000003 cycles: 96292726 heartbeat IPC: 1.2969 cumulative IPC: 0.960883 (Simulation time: 0 hr 7 min 55 sec) 
Heartbeat CPU 0 instructions: 110000003 cycles: 105810809 heartbeat IPC: 1.05063 cumulative IPC: 0.969162 (Simulation time: 0 hr 8 min 47 sec) 
Finished CPU 0 instructions: 100000004 cycles: 103181930 cumulative IPC: 0.969162 (Simulation time: 0 hr 8 min 47 sec) 

ChampSim completed all CPUs

Region of Interest Statistics

CPU 0 cumulative IPC: 0.969162 instructions: 100000004 cycles: 103181930
cpu0_DTLB TOTAL     ACCESS:   16835948  HIT:   16675967  MISS:     159981
cpu0_DTLB LOAD      ACCESS:   15498937  HIT:   15347241  MISS:     151696
cpu0_DTLB RFO       ACCESS:    1337011  HIT:    1328726  MISS:       8285
cpu0_DTLB PREFETCH  ACCESS:          0  HIT:          0  MISS:          0
cpu0_DTLB WRITEBACK ACCESS:          0  HIT:          0  MISS:          0
cpu0_DTLB TRANSLATION ACCESS:          0  HIT:          0  MISS:          0
cpu0_DTLB PREFETCH  REQUESTED:          0  ISSUED:          0  USEFUL:          0  USELESS:          0
cpu0_DTLB AVERAGE MISS LATENCY: 12.7677 cycles
cpu0_ITLB TOTAL     ACCESS:    9378542  HIT:    9378477  MISS:         65
cpu0_ITLB LOAD      ACCESS:    9378542  HIT:    9378477  MISS:         65
cpu0_ITLB RFO       ACCESS:          0  HIT:          0  MISS:          0
cpu0_ITLB PREFETCH  ACCESS:          0  HIT:          0  MISS:          0
cpu0_ITLB WRITEBACK ACCESS:          0  HIT:          0  MISS:          0
cpu0_ITLB TRANSLATION ACCESS:          0  HIT:          0  MISS:          0
cpu0_ITLB PREFETCH  REQUESTED:          0  ISSUED:          0  USEFUL:          0  USELESS:          0
cpu0_ITLB AVERAGE MISS LATENCY: 148.4 cycles
cpu0_L1I TOTAL     ACCESS:     192659  HIT:     191279  MISS:       1380
cpu0_L1I LOAD      ACCESS:     192659  HIT:     191279  MISS:       1380
cpu0_L1I RFO       ACCESS:          0  HIT:          0  MISS:          0
cpu0_L1I PREFETCH  ACCESS:          0  HIT:          0  MISS:          0
cpu0_L1I WRITEBACK ACCESS:          0  HIT:          0  MISS:          0
cpu0_L1I TRANSLATION ACCESS:          0  HIT:          0  MISS:          0
cpu0_L1I PREFETCH  REQUESTED:          0  ISSUED:          0  USEFUL:          0  USELESS:          0
cpu0_L1I AVERAGE MISS LATENCY: 207.343 cycles
cpu0_STLB TOTAL     ACCESS:     160046  HIT:      99152  MISS:      60894
cpu0_STLB LOAD      ACCESS:     151761  HIT:      92091  MISS:      59670
cpu0_STLB RFO       ACCESS:       8285  HIT:       7061  MISS:       1224
cpu0_STLB PREFETCH  ACCESS:          0  HIT:          0  MISS:          0
cpu0_STLB WRITEBACK ACCESS:          0  HIT:          0  MISS:          0
cpu0_STLB TRANSLATION ACCESS:          0  HIT:          0  MISS:          0
cpu0_STLB PREFETCH  REQUESTED:          0  ISSUED:          0  USEFUL:          0  USELESS:          0
cpu0_STLB AVERAGE MISS LATENCY: 9.92042 cycles
cpu0_L1D TOTAL     ACCESS:   12875447  HIT:   11126111  MISS:    1749336
cpu0_L1D LOAD      ACCESS:   10638468  HIT:    9004057  MISS:    1634411
cpu0_L1D RFO       ACCESS:    2178955  HIT:    2064823  MISS:     114132
cpu0_L1D PREFETCH  ACCESS:          0  HIT:          0  MISS:          0
cpu0_L1D WRITEBACK ACCESS:          0  HIT:          0  MISS:          0
cpu0_L1D TRANSLATION ACCESS:      58024  HIT:      57231  MISS:        793
cpu0_L1D PREFETCH  REQUESTED:          0  ISSUED:          0  USEFUL:          0  USELESS:          0
cpu0_L1D AVERAGE MISS LATENCY: 105.739 cycles
cpu0_L2C TOTAL     ACCESS:    1908302  HIT:     517725  MISS:    1390577
cpu0_L2C LOAD      ACCESS:    1635788  HIT:     346971  MISS:    1288817
cpu0_L2C RFO       ACCESS:     114128  HIT:      12985  MISS:     101143
cpu0_L2C PREFETCH  ACCESS:          0  HIT:          0  MISS:          0
cpu0_L2C WRITEBACK ACCESS:     157593  HIT:     157297  MISS:        296
cpu0_L2C TRANSLATION ACCESS:        793  HIT:        472  MISS:        321
cpu0_L2C PREFETCH  REQUESTED:          0  ISSUED:          0  USEFUL:          0  USELESS:          0
cpu0_L2C AVERAGE MISS LATENCY: 119.318 cycles
LLC TOTAL     ACCESS:    1524824  HIT:     800224  MISS:     724600
LLC LOAD      ACCESS:    1288817  HIT:     617823  MISS:     670994
LLC RFO       ACCESS:     101143  HIT:      75091  MISS:      26052
LLC PREFETCH  ACCESS:          0  HIT:          0  MISS:          0
LLC WRITEBACK ACCESS:     134543  HIT:     106994  MISS:      27549
LLC TRANSLATION ACCESS:        321  HIT:        316  MISS:          5
LLC PREFETCH  REQUESTED:          0  ISSUED:          0  USEFUL:          0  USELESS:          0
LLC AVERAGE MISS LATENCY: 188.614 cycles
Insertion Distribution: 
	LOAD 3092 0 133592 653282 
	RFO 151 0 9016 22559 
	PREF 0 0 0 0 
	WRITEBACK 0 0 0 27954 
	 0 0 20 0 
Total Prefetch Downgrades: 0

DRAM Statistics
 CHANNEL 0
 RQ ROW_BUFFER_HIT:      90445  ROW_BUFFER_MISS:     606510
 DBUS AVG_CONGESTED_CYCLE:    3.78354
 WQ ROW_BUFFER_HIT:      13618  ROW_BUFFER_MISS:      21958  FULL:      17420


CPU 0 Branch Prediction Accuracy: 91.645% MPKI: 7.87682 Average ROB Occupancy at Mispredict: 153.906
Branch type MPKI
BRANCH_DIRECT_JUMP: 0.0017
BRANCH_INDIRECT: 0.00111
BRANCH_CONDITIONAL: 7.87013
BRANCH_DIRECT_CALL: 0.00166
BRANCH_INDIRECT_CALL: 0.0005
BRANCH_RETURN: 0.00172

