
*** ChampSim Multicore Out-of-Order Simulator ***

Warmup Instructions: 10000000
Simulation Instructions: 100000000
Number of CPUs: 1
Off-chip DRAM Size: 4 GiB Channels: 1 Width: 64-bit Data Rate: 3200 MT/s

VirtualMemory physical capacity: 8588881920 num_ppages: 2096895
VirtualMemory page size: 4096 log2_page_size: 12

CPU 0 runs /datasets/cs240c-wi22-a00-public/data/Assignment2/sphinx3_1339B.trace.xz
CPU 0 Bimodal branch predictor
Basic BTB sets: 1024 ways: 8 indirect buffer size: 4096 RAS size: 64
Initialize SRRIP state
Heartbeat CPU 0 instructions: 10000001 cycles: 2584402 heartbeat IPC: 3.86937 cumulative IPC: 3.86937 (Simulation time: 0 hr 0 min 26 sec) 

Warmup complete CPU 0 instructions: 10000001 cycles: 2584402 (Simulation time: 0 hr 0 min 26 sec) 

Heartbeat CPU 0 instructions: 20000003 cycles: 10410461 heartbeat IPC: 1.27778 cumulative IPC: 1.27778 (Simulation time: 0 hr 1 min 8 sec) 
Heartbeat CPU 0 instructions: 30000002 cycles: 17790992 heartbeat IPC: 1.35492 cumulative IPC: 1.31522 (Simulation time: 0 hr 1 min 50 sec) 
Heartbeat CPU 0 instructions: 40000002 cycles: 25833784 heartbeat IPC: 1.24335 cumulative IPC: 1.29036 (Simulation time: 0 hr 2 min 31 sec) 
Heartbeat CPU 0 instructions: 50000004 cycles: 33681359 heartbeat IPC: 1.27428 cumulative IPC: 1.2863 (Simulation time: 0 hr 3 min 14 sec) 
Heartbeat CPU 0 instructions: 60000003 cycles: 41537149 heartbeat IPC: 1.27295 cumulative IPC: 1.28361 (Simulation time: 0 hr 3 min 55 sec) 
Heartbeat CPU 0 instructions: 70000002 cycles: 49298174 heartbeat IPC: 1.28849 cumulative IPC: 1.28442 (Simulation time: 0 hr 4 min 37 sec) 
Heartbeat CPU 0 instructions: 80000001 cycles: 56745237 heartbeat IPC: 1.34281 cumulative IPC: 1.29245 (Simulation time: 0 hr 5 min 18 sec) 
Heartbeat CPU 0 instructions: 90000001 cycles: 63960135 heartbeat IPC: 1.38602 cumulative IPC: 1.30345 (Simulation time: 0 hr 5 min 59 sec) 
Heartbeat CPU 0 instructions: 100000002 cycles: 71443876 heartbeat IPC: 1.33623 cumulative IPC: 1.30701 (Simulation time: 0 hr 6 min 39 sec) 
Heartbeat CPU 0 instructions: 110000000 cycles: 79884708 heartbeat IPC: 1.18472 cumulative IPC: 1.29366 (Simulation time: 0 hr 7 min 20 sec) 
Finished CPU 0 instructions: 100000004 cycles: 77300307 cumulative IPC: 1.29366 (Simulation time: 0 hr 7 min 20 sec) 

ChampSim completed all CPUs

Region of Interest Statistics

CPU 0 cumulative IPC: 1.29366 instructions: 100000004 cycles: 77300307
cpu0_DTLB TOTAL     ACCESS:   16138915  HIT:   16030148  MISS:     108767
cpu0_DTLB LOAD      ACCESS:   14974227  HIT:   14871392  MISS:     102835
cpu0_DTLB RFO       ACCESS:    1164688  HIT:    1158756  MISS:       5932
cpu0_DTLB PREFETCH  ACCESS:          0  HIT:          0  MISS:          0
cpu0_DTLB WRITEBACK ACCESS:          0  HIT:          0  MISS:          0
cpu0_DTLB TRANSLATION ACCESS:          0  HIT:          0  MISS:          0
cpu0_DTLB PREFETCH  REQUESTED:          0  ISSUED:          0  USEFUL:          0  USELESS:          0
cpu0_DTLB AVERAGE MISS LATENCY: 13.2396 cycles
cpu0_ITLB TOTAL     ACCESS:    9628373  HIT:    9628331  MISS:         42
cpu0_ITLB LOAD      ACCESS:    9628373  HIT:    9628331  MISS:         42
cpu0_ITLB RFO       ACCESS:          0  HIT:          0  MISS:          0
cpu0_ITLB PREFETCH  ACCESS:          0  HIT:          0  MISS:          0
cpu0_ITLB WRITEBACK ACCESS:          0  HIT:          0  MISS:          0
cpu0_ITLB TRANSLATION ACCESS:          0  HIT:          0  MISS:          0
cpu0_ITLB PREFETCH  REQUESTED:          0  ISSUED:          0  USEFUL:          0  USELESS:          0
cpu0_ITLB AVERAGE MISS LATENCY: 122.881 cycles
cpu0_L1I TOTAL     ACCESS:     299300  HIT:     297730  MISS:       1570
cpu0_L1I LOAD      ACCESS:     299300  HIT:     297730  MISS:       1570
cpu0_L1I RFO       ACCESS:          0  HIT:          0  MISS:          0
cpu0_L1I PREFETCH  ACCESS:          0  HIT:          0  MISS:          0
cpu0_L1I WRITEBACK ACCESS:          0  HIT:          0  MISS:          0
cpu0_L1I TRANSLATION ACCESS:          0  HIT:          0  MISS:          0
cpu0_L1I PREFETCH  REQUESTED:          0  ISSUED:          0  USEFUL:          0  USELESS:          0
cpu0_L1I AVERAGE MISS LATENCY: 183.697 cycles
cpu0_STLB TOTAL     ACCESS:     108809  HIT:      69697  MISS:      39112
cpu0_STLB LOAD      ACCESS:     102877  HIT:      64840  MISS:      38037
cpu0_STLB RFO       ACCESS:       5932  HIT:       4857  MISS:       1075
cpu0_STLB PREFETCH  ACCESS:          0  HIT:          0  MISS:          0
cpu0_STLB WRITEBACK ACCESS:          0  HIT:          0  MISS:          0
cpu0_STLB TRANSLATION ACCESS:          0  HIT:          0  MISS:          0
cpu0_STLB PREFETCH  REQUESTED:          0  ISSUED:          0  USEFUL:          0  USELESS:          0
cpu0_STLB AVERAGE MISS LATENCY: 11.7651 cycles
cpu0_L1D TOTAL     ACCESS:   11990186  HIT:   10491033  MISS:    1499153
cpu0_L1D LOAD      ACCESS:   10220902  HIT:    8842852  MISS:    1378050
cpu0_L1D RFO       ACCESS:    1732348  HIT:    1611746  MISS:     120602
cpu0_L1D PREFETCH  ACCESS:          0  HIT:          0  MISS:          0
cpu0_L1D WRITEBACK ACCESS:          0  HIT:          0  MISS:          0
cpu0_L1D TRANSLATION ACCESS:      36936  HIT:      36435  MISS:        501
cpu0_L1D PREFETCH  REQUESTED:          0  ISSUED:          0  USEFUL:          0  USELESS:          0
cpu0_L1D AVERAGE MISS LATENCY: 86.4092 cycles
cpu0_L2C TOTAL     ACCESS:    1642836  HIT:     358280  MISS:    1284556
cpu0_L2C LOAD      ACCESS:    1379608  HIT:     204242  MISS:    1175366
cpu0_L2C RFO       ACCESS:     120599  HIT:      11965  MISS:     108634
cpu0_L2C PREFETCH  ACCESS:          0  HIT:          0  MISS:          0
cpu0_L2C WRITEBACK ACCESS:     142128  HIT:     141860  MISS:        268
cpu0_L2C TRANSLATION ACCESS:        501  HIT:        213  MISS:        288
cpu0_L2C PREFETCH  REQUESTED:          0  ISSUED:          0  USEFUL:          0  USELESS:          0
cpu0_L2C AVERAGE MISS LATENCY: 88.1773 cycles
LLC TOTAL     ACCESS:    1413663  HIT:     926224  MISS:     487439
LLC LOAD      ACCESS:    1175358  HIT:     712451  MISS:     462907
LLC RFO       ACCESS:     108634  HIT:      95153  MISS:      13481
LLC PREFETCH  ACCESS:          0  HIT:          0  MISS:          0
LLC WRITEBACK ACCESS:     129383  HIT:     118337  MISS:      11046
LLC TRANSLATION ACCESS:        288  HIT:        283  MISS:          5
LLC PREFETCH  REQUESTED:          0  ISSUED:          0  USEFUL:          0  USELESS:          0
LLC AVERAGE MISS LATENCY: 177.042 cycles
Insertion Distribution: 
	LOAD 4015 0 117966 430144 
	RFO 1502 0 5350 11652 
	PREF 0 0 0 0 
	WRITEBACK 0 0 0 11590 
	 0 0 19 6 
Total Prefetch Downgrades: 0

DRAM Statistics
 CHANNEL 0
 RQ ROW_BUFFER_HIT:      66533  ROW_BUFFER_MISS:     409765
 DBUS AVG_CONGESTED_CYCLE:    3.77198
 WQ ROW_BUFFER_HIT:       6141  ROW_BUFFER_MISS:      13562  FULL:         40


CPU 0 Branch Prediction Accuracy: 92.5867% MPKI: 6.65069 Average ROB Occupancy at Mispredict: 178.687
Branch type MPKI
BRANCH_DIRECT_JUMP: 0.00112
BRANCH_INDIRECT: 0
BRANCH_CONDITIONAL: 6.64811
BRANCH_DIRECT_CALL: 0.00071
BRANCH_INDIRECT_CALL: 3e-05
BRANCH_RETURN: 0.00072

