
*** ChampSim Multicore Out-of-Order Simulator ***

Warmup Instructions: 10000000
Simulation Instructions: 100000000
Number of CPUs: 1
Off-chip DRAM Size: 4 GiB Channels: 1 Width: 64-bit Data Rate: 3200 MT/s

VirtualMemory physical capacity: 8588881920 num_ppages: 2096895
VirtualMemory page size: 4096 log2_page_size: 12

CPU 0 runs /datasets/cs240c-wi22-a00-public/data/Assignment2/leslie3d_1186B.trace.xz
CPU 0 Bimodal branch predictor
Basic BTB sets: 1024 ways: 8 indirect buffer size: 4096 RAS size: 64
Initialize SRRIP state
Heartbeat CPU 0 instructions: 10000000 cycles: 4308787 heartbeat IPC: 2.32084 cumulative IPC: 2.32084 (Simulation time: 0 hr 1 min 8 sec) 

Warmup complete CPU 0 instructions: 10000005 cycles: 4308788 (Simulation time: 0 hr 1 min 8 sec) 

Heartbeat CPU 0 instructions: 20000000 cycles: 18103534 heartbeat IPC: 0.724914 cumulative IPC: 0.724913 (Simulation time: 0 hr 3 min 7 sec) 
Heartbeat CPU 0 instructions: 30000000 cycles: 32099788 heartbeat IPC: 0.714477 cumulative IPC: 0.719657 (Simulation time: 0 hr 5 min 3 sec) 
Heartbeat CPU 0 instructions: 40000004 cycles: 45905399 heartbeat IPC: 0.724343 cumulative IPC: 0.721213 (Simulation time: 0 hr 6 min 57 sec) 
Heartbeat CPU 0 instructions: 50000002 cycles: 63685699 heartbeat IPC: 0.56242 cumulative IPC: 0.673662 (Simulation time: 0 hr 9 min 0 sec) 
Heartbeat CPU 0 instructions: 60000000 cycles: 99291203 heartbeat IPC: 0.280855 cumulative IPC: 0.526413 (Simulation time: 0 hr 12 min 43 sec) 
Heartbeat CPU 0 instructions: 70000000 cycles: 127800384 heartbeat IPC: 0.350764 cumulative IPC: 0.485863 (Simulation time: 0 hr 15 min 49 sec) 
Heartbeat CPU 0 instructions: 80000003 cycles: 138136259 heartbeat IPC: 0.967504 cumulative IPC: 0.523062 (Simulation time: 0 hr 17 min 30 sec) 
Heartbeat CPU 0 instructions: 90000002 cycles: 148497611 heartbeat IPC: 0.965125 cumulative IPC: 0.554828 (Simulation time: 0 hr 19 min 14 sec) 
Heartbeat CPU 0 instructions: 100000000 cycles: 158767275 heartbeat IPC: 0.973741 cumulative IPC: 0.582681 (Simulation time: 0 hr 20 min 53 sec) 
Heartbeat CPU 0 instructions: 110000000 cycles: 169096456 heartbeat IPC: 0.968131 cumulative IPC: 0.606842 (Simulation time: 0 hr 22 min 35 sec) 
Finished CPU 0 instructions: 100000000 cycles: 164787669 cumulative IPC: 0.606842 (Simulation time: 0 hr 22 min 35 sec) 

ChampSim completed all CPUs

Region of Interest Statistics

CPU 0 cumulative IPC: 0.606842 instructions: 100000000 cycles: 164787669
cpu0_DTLB TOTAL     ACCESS:   27961552  HIT:   27863917  MISS:      97635
cpu0_DTLB LOAD      ACCESS:   23288165  HIT:   23202281  MISS:      85884
cpu0_DTLB RFO       ACCESS:    4673387  HIT:    4661636  MISS:      11751
cpu0_DTLB PREFETCH  ACCESS:          0  HIT:          0  MISS:          0
cpu0_DTLB WRITEBACK ACCESS:          0  HIT:          0  MISS:          0
cpu0_DTLB TRANSLATION ACCESS:          0  HIT:          0  MISS:          0
cpu0_DTLB PREFETCH  REQUESTED:          0  ISSUED:          0  USEFUL:          0  USELESS:          0
cpu0_DTLB AVERAGE MISS LATENCY: 51.5817 cycles
cpu0_ITLB TOTAL     ACCESS:    2912067  HIT:    2912054  MISS:         13
cpu0_ITLB LOAD      ACCESS:    2912067  HIT:    2912054  MISS:         13
cpu0_ITLB RFO       ACCESS:          0  HIT:          0  MISS:          0
cpu0_ITLB PREFETCH  ACCESS:          0  HIT:          0  MISS:          0
cpu0_ITLB WRITEBACK ACCESS:          0  HIT:          0  MISS:          0
cpu0_ITLB TRANSLATION ACCESS:          0  HIT:          0  MISS:          0
cpu0_ITLB PREFETCH  REQUESTED:          0  ISSUED:          0  USEFUL:          0  USELESS:          0
cpu0_ITLB AVERAGE MISS LATENCY: 218.231 cycles
cpu0_L1I TOTAL     ACCESS:    1737673  HIT:    1737293  MISS:        380
cpu0_L1I LOAD      ACCESS:    1737673  HIT:    1737293  MISS:        380
cpu0_L1I RFO       ACCESS:          0  HIT:          0  MISS:          0
cpu0_L1I PREFETCH  ACCESS:          0  HIT:          0  MISS:          0
cpu0_L1I WRITEBACK ACCESS:          0  HIT:          0  MISS:          0
cpu0_L1I TRANSLATION ACCESS:          0  HIT:          0  MISS:          0
cpu0_L1I PREFETCH  REQUESTED:          0  ISSUED:          0  USEFUL:          0  USELESS:          0
cpu0_L1I AVERAGE MISS LATENCY: 322.184 cycles
cpu0_STLB TOTAL     ACCESS:      97648  HIT:      70246  MISS:      27402
cpu0_STLB LOAD      ACCESS:      85897  HIT:      63170  MISS:      22727
cpu0_STLB RFO       ACCESS:      11751  HIT:       7076  MISS:       4675
cpu0_STLB PREFETCH  ACCESS:          0  HIT:          0  MISS:          0
cpu0_STLB WRITEBACK ACCESS:          0  HIT:          0  MISS:          0
cpu0_STLB TRANSLATION ACCESS:          0  HIT:          0  MISS:          0
cpu0_STLB PREFETCH  REQUESTED:          0  ISSUED:          0  USEFUL:          0  USELESS:          0
cpu0_STLB AVERAGE MISS LATENCY: 151.766 cycles
cpu0_L1D TOTAL     ACCESS:   26977622  HIT:   23074763  MISS:    3902859
cpu0_L1D LOAD      ACCESS:   17754097  HIT:   14570223  MISS:    3183874
cpu0_L1D RFO       ACCESS:    9198938  HIT:    8483394  MISS:     715544
cpu0_L1D PREFETCH  ACCESS:          0  HIT:          0  MISS:          0
cpu0_L1D WRITEBACK ACCESS:          0  HIT:          0  MISS:          0
cpu0_L1D TRANSLATION ACCESS:      24587  HIT:      21146  MISS:       3441
cpu0_L1D PREFETCH  REQUESTED:          0  ISSUED:          0  USEFUL:          0  USELESS:          0
cpu0_L1D AVERAGE MISS LATENCY: 363.317 cycles
cpu0_L2C TOTAL     ACCESS:    4956381  HIT:    2399207  MISS:    2557174
cpu0_L2C LOAD      ACCESS:    3184200  HIT:    1037114  MISS:    2147086
cpu0_L2C RFO       ACCESS:     715234  HIT:     307565  MISS:     407669
cpu0_L2C PREFETCH  ACCESS:          0  HIT:          0  MISS:          0
cpu0_L2C WRITEBACK ACCESS:    1053506  HIT:    1051297  MISS:       2209
cpu0_L2C TRANSLATION ACCESS:       3441  HIT:       3231  MISS:        210
cpu0_L2C PREFETCH  REQUESTED:          0  ISSUED:          0  USEFUL:          0  USELESS:          0
cpu0_L2C AVERAGE MISS LATENCY: 537.712 cycles
LLC TOTAL     ACCESS:    3217312  HIT:     807951  MISS:    2409361
LLC LOAD      ACCESS:    2147077  HIT:     512849  MISS:    1634228
LLC RFO       ACCESS:     407658  HIT:     117391  MISS:     290267
LLC PREFETCH  ACCESS:          0  HIT:          0  MISS:          0
LLC WRITEBACK ACCESS:     662367  HIT:     177518  MISS:     484849
LLC TRANSLATION ACCESS:        210  HIT:        193  MISS:         17
LLC PREFETCH  REQUESTED:          0  ISSUED:          0  USEFUL:          0  USELESS:          0
LLC AVERAGE MISS LATENCY: 548.385 cycles
Insertion Distribution: 
	LOAD 0 0 450672 1349753 
	RFO 0 0 20982 271312 
	PREF 0 0 0 0 
	WRITEBACK 0 0 0 503224 
	 0 0 33 3 
Total Prefetch Downgrades: 0

DRAM Statistics
 CHANNEL 0
 RQ ROW_BUFFER_HIT:     222330  ROW_BUFFER_MISS:    1702130
 DBUS AVG_CONGESTED_CYCLE:    3.94904
 WQ ROW_BUFFER_HIT:      40961  ROW_BUFFER_MISS:     487495  FULL:      22747


CPU 0 Branch Prediction Accuracy: 96.8384% MPKI: 1.47634 Average ROB Occupancy at Mispredict: 311.905
Branch type MPKI
BRANCH_DIRECT_JUMP: 0.00016
BRANCH_INDIRECT: 0
BRANCH_CONDITIONAL: 1.47504
BRANCH_DIRECT_CALL: 0.00057
BRANCH_INDIRECT_CALL: 0
BRANCH_RETURN: 0.00057

