
*** ChampSim Multicore Out-of-Order Simulator ***

Warmup Instructions: 10000000
Simulation Instructions: 100000000
Number of CPUs: 1
Off-chip DRAM Size: 4 GiB Channels: 1 Width: 64-bit Data Rate: 3200 MT/s

VirtualMemory physical capacity: 8588881920 num_ppages: 2096895
VirtualMemory page size: 4096 log2_page_size: 12

CPU 0 runs /datasets/cs240c-wi22-a00-public/data/Assignment2/wrf_1650B.trace.xz
CPU 0 Bimodal branch predictor
Basic BTB sets: 1024 ways: 8 indirect buffer size: 4096 RAS size: 64
Initialize SRRIP state
Heartbeat CPU 0 instructions: 10000001 cycles: 2500100 heartbeat IPC: 3.99984 cumulative IPC: 3.99984 (Simulation time: 0 hr 0 min 28 sec) 

Warmup complete CPU 0 instructions: 10000001 cycles: 2500100 (Simulation time: 0 hr 0 min 28 sec) 

Heartbeat CPU 0 instructions: 20000004 cycles: 12137577 heartbeat IPC: 1.03762 cumulative IPC: 1.03762 (Simulation time: 0 hr 1 min 29 sec) 
Heartbeat CPU 0 instructions: 30000000 cycles: 21774170 heartbeat IPC: 1.03771 cumulative IPC: 1.03766 (Simulation time: 0 hr 2 min 32 sec) 
Heartbeat CPU 0 instructions: 40000002 cycles: 31416543 heartbeat IPC: 1.03709 cumulative IPC: 1.03747 (Simulation time: 0 hr 3 min 34 sec) 
Heartbeat CPU 0 instructions: 50000000 cycles: 47878411 heartbeat IPC: 0.607464 cumulative IPC: 0.881478 (Simulation time: 0 hr 5 min 11 sec) 
Heartbeat CPU 0 instructions: 60000000 cycles: 60546013 heartbeat IPC: 0.789415 cumulative IPC: 0.861387 (Simulation time: 0 hr 6 min 56 sec) 
Heartbeat CPU 0 instructions: 70000002 cycles: 76420868 heartbeat IPC: 0.629927 cumulative IPC: 0.81168 (Simulation time: 0 hr 8 min 29 sec) 
Heartbeat CPU 0 instructions: 80000004 cycles: 92183537 heartbeat IPC: 0.63441 cumulative IPC: 0.780523 (Simulation time: 0 hr 10 min 2 sec) 
Heartbeat CPU 0 instructions: 90000000 cycles: 107079334 heartbeat IPC: 0.67133 cumulative IPC: 0.76497 (Simulation time: 0 hr 11 min 29 sec) 
Heartbeat CPU 0 instructions: 100000004 cycles: 127229308 heartbeat IPC: 0.496279 cumulative IPC: 0.721563 (Simulation time: 0 hr 13 min 17 sec) 
Heartbeat CPU 0 instructions: 110000004 cycles: 145457523 heartbeat IPC: 0.5486 cumulative IPC: 0.699509 (Simulation time: 0 hr 14 min 59 sec) 
Finished CPU 0 instructions: 100000003 cycles: 142957423 cumulative IPC: 0.699509 (Simulation time: 0 hr 14 min 59 sec) 

ChampSim completed all CPUs

Region of Interest Statistics

CPU 0 cumulative IPC: 0.699509 instructions: 100000003 cycles: 142957423
cpu0_DTLB TOTAL     ACCESS:   16211771  HIT:   16181005  MISS:      30766
cpu0_DTLB LOAD      ACCESS:   14784510  HIT:   14760488  MISS:      24022
cpu0_DTLB RFO       ACCESS:    1427261  HIT:    1420517  MISS:       6744
cpu0_DTLB PREFETCH  ACCESS:          0  HIT:          0  MISS:          0
cpu0_DTLB WRITEBACK ACCESS:          0  HIT:          0  MISS:          0
cpu0_DTLB TRANSLATION ACCESS:          0  HIT:          0  MISS:          0
cpu0_DTLB PREFETCH  REQUESTED:          0  ISSUED:          0  USEFUL:          0  USELESS:          0
cpu0_DTLB AVERAGE MISS LATENCY: 144.027 cycles
cpu0_ITLB TOTAL     ACCESS:    6814741  HIT:    6814714  MISS:         27
cpu0_ITLB LOAD      ACCESS:    6814741  HIT:    6814714  MISS:         27
cpu0_ITLB RFO       ACCESS:          0  HIT:          0  MISS:          0
cpu0_ITLB PREFETCH  ACCESS:          0  HIT:          0  MISS:          0
cpu0_ITLB WRITEBACK ACCESS:          0  HIT:          0  MISS:          0
cpu0_ITLB TRANSLATION ACCESS:          0  HIT:          0  MISS:          0
cpu0_ITLB PREFETCH  REQUESTED:          0  ISSUED:          0  USEFUL:          0  USELESS:          0
cpu0_ITLB AVERAGE MISS LATENCY: 243.407 cycles
cpu0_L1I TOTAL     ACCESS:    1672708  HIT:    1672164  MISS:        544
cpu0_L1I LOAD      ACCESS:    1672708  HIT:    1672164  MISS:        544
cpu0_L1I RFO       ACCESS:          0  HIT:          0  MISS:          0
cpu0_L1I PREFETCH  ACCESS:          0  HIT:          0  MISS:          0
cpu0_L1I WRITEBACK ACCESS:          0  HIT:          0  MISS:          0
cpu0_L1I TRANSLATION ACCESS:          0  HIT:          0  MISS:          0
cpu0_L1I PREFETCH  REQUESTED:          0  ISSUED:          0  USEFUL:          0  USELESS:          0
cpu0_L1I AVERAGE MISS LATENCY: 352.29 cycles
cpu0_STLB TOTAL     ACCESS:      30793  HIT:      16563  MISS:      14230
cpu0_STLB LOAD      ACCESS:      24049  HIT:      13009  MISS:      11040
cpu0_STLB RFO       ACCESS:       6744  HIT:       3554  MISS:       3190
cpu0_STLB PREFETCH  ACCESS:          0  HIT:          0  MISS:          0
cpu0_STLB WRITEBACK ACCESS:          0  HIT:          0  MISS:          0
cpu0_STLB TRANSLATION ACCESS:          0  HIT:          0  MISS:          0
cpu0_STLB PREFETCH  REQUESTED:          0  ISSUED:          0  USEFUL:          0  USELESS:          0
cpu0_STLB AVERAGE MISS LATENCY: 292.38 cycles
cpu0_L1D TOTAL     ACCESS:   14715498  HIT:   13683331  MISS:    1032167
cpu0_L1D LOAD      ACCESS:   12427552  HIT:   11610067  MISS:     817485
cpu0_L1D RFO       ACCESS:    2275043  HIT:    2060934  MISS:     214109
cpu0_L1D PREFETCH  ACCESS:          0  HIT:          0  MISS:          0
cpu0_L1D WRITEBACK ACCESS:          0  HIT:          0  MISS:          0
cpu0_L1D TRANSLATION ACCESS:      12903  HIT:      12330  MISS:        573
cpu0_L1D PREFETCH  REQUESTED:          0  ISSUED:          0  USEFUL:          0  USELESS:          0
cpu0_L1D AVERAGE MISS LATENCY: 233.999 cycles
cpu0_L2C TOTAL     ACCESS:    1279256  HIT:     490420  MISS:     788836
cpu0_L2C LOAD      ACCESS:     818011  HIT:     229610  MISS:     588401
cpu0_L2C RFO       ACCESS:     214105  HIT:      13796  MISS:     200309
cpu0_L2C PREFETCH  ACCESS:          0  HIT:          0  MISS:          0
cpu0_L2C WRITEBACK ACCESS:     246567  HIT:     246485  MISS:         82
cpu0_L2C TRANSLATION ACCESS:        573  HIT:        529  MISS:         44
cpu0_L2C PREFETCH  REQUESTED:          0  ISSUED:          0  USEFUL:          0  USELESS:          0
cpu0_L2C AVERAGE MISS LATENCY: 292.014 cycles
LLC TOTAL     ACCESS:    1004706  HIT:     110257  MISS:     894449
LLC LOAD      ACCESS:     588401  HIT:      33650  MISS:     554751
LLC RFO       ACCESS:     200309  HIT:         67  MISS:     200242
LLC PREFETCH  ACCESS:          0  HIT:          0  MISS:          0
LLC WRITEBACK ACCESS:     215952  HIT:      76515  MISS:     139437
LLC TRANSLATION ACCESS:         44  HIT:         25  MISS:         19
LLC PREFETCH  REQUESTED:          0  ISSUED:          0  USEFUL:          0  USELESS:          0
LLC AVERAGE MISS LATENCY: 239.016 cycles
Insertion Distribution: 
	LOAD 0 0 113547 451970 
	RFO 0 0 60098 144320 
	PREF 0 0 0 0 
	WRITEBACK 0 0 0 139437 
	 0 0 33 1 
Total Prefetch Downgrades: 0

DRAM Statistics
 CHANNEL 0
 RQ ROW_BUFFER_HIT:      27432  ROW_BUFFER_MISS:     727572
 DBUS AVG_CONGESTED_CYCLE:    3.92971
 WQ ROW_BUFFER_HIT:      36264  ROW_BUFFER_MISS:     170698  FULL:          0


CPU 0 Branch Prediction Accuracy: 83.2596% MPKI: 18.9931 Average ROB Occupancy at Mispredict: 252.733
Branch type MPKI
BRANCH_DIRECT_JUMP: 0.0005
BRANCH_INDIRECT: 0
BRANCH_CONDITIONAL: 18.9921
BRANCH_DIRECT_CALL: 0.00023
BRANCH_INDIRECT_CALL: 0
BRANCH_RETURN: 0.00022

