
*** ChampSim Multicore Out-of-Order Simulator ***

Warmup Instructions: 10000000
Simulation Instructions: 100000000
Number of CPUs: 1
Off-chip DRAM Size: 4 GiB Channels: 1 Width: 64-bit Data Rate: 3200 MT/s

VirtualMemory physical capacity: 8588881920 num_ppages: 2096895
VirtualMemory page size: 4096 log2_page_size: 12

CPU 0 runs /datasets/cs240c-wi22-a00-public/data/Assignment2/sphinx3_1339B.trace.xz
CPU 0 Bimodal branch predictor
Basic BTB sets: 1024 ways: 8 indirect buffer size: 4096 RAS size: 64
Initialize SRRIP state
Heartbeat CPU 0 instructions: 10000000 cycles: 2584401 heartbeat IPC: 3.86937 cumulative IPC: 3.86937 (Simulation time: 0 hr 0 min 29 sec) 

Warmup complete CPU 0 instructions: 10000004 cycles: 2584402 (Simulation time: 0 hr 0 min 29 sec) 

Heartbeat CPU 0 instructions: 20000003 cycles: 10298415 heartbeat IPC: 1.29634 cumulative IPC: 1.29634 (Simulation time: 0 hr 1 min 13 sec) 
Heartbeat CPU 0 instructions: 30000001 cycles: 17606549 heartbeat IPC: 1.36834 cumulative IPC: 1.33137 (Simulation time: 0 hr 1 min 56 sec) 
Heartbeat CPU 0 instructions: 40000002 cycles: 25621789 heartbeat IPC: 1.24762 cumulative IPC: 1.30223 (Simulation time: 0 hr 2 min 37 sec) 
Heartbeat CPU 0 instructions: 50000004 cycles: 33625419 heartbeat IPC: 1.24943 cumulative IPC: 1.28862 (Simulation time: 0 hr 3 min 20 sec) 
Heartbeat CPU 0 instructions: 60000003 cycles: 41204179 heartbeat IPC: 1.31948 cumulative IPC: 1.29467 (Simulation time: 0 hr 4 min 0 sec) 
Heartbeat CPU 0 instructions: 70000003 cycles: 48835823 heartbeat IPC: 1.31033 cumulative IPC: 1.29726 (Simulation time: 0 hr 4 min 41 sec) 
Heartbeat CPU 0 instructions: 80000001 cycles: 56173055 heartbeat IPC: 1.36291 cumulative IPC: 1.30625 (Simulation time: 0 hr 5 min 23 sec) 
Heartbeat CPU 0 instructions: 90000001 cycles: 63310483 heartbeat IPC: 1.40106 cumulative IPC: 1.31739 (Simulation time: 0 hr 6 min 4 sec) 
Heartbeat CPU 0 instructions: 100000002 cycles: 70768559 heartbeat IPC: 1.34083 cumulative IPC: 1.31995 (Simulation time: 0 hr 6 min 47 sec) 
Heartbeat CPU 0 instructions: 110000000 cycles: 79226189 heartbeat IPC: 1.18236 cumulative IPC: 1.30477 (Simulation time: 0 hr 7 min 30 sec) 
Finished CPU 0 instructions: 100000001 cycles: 76641788 cumulative IPC: 1.30477 (Simulation time: 0 hr 7 min 30 sec) 

ChampSim completed all CPUs

Region of Interest Statistics

CPU 0 cumulative IPC: 1.30477 instructions: 100000001 cycles: 76641788
cpu0_DTLB TOTAL     ACCESS:   16105692  HIT:   15996925  MISS:     108767
cpu0_DTLB LOAD      ACCESS:   14954031  HIT:   14851186  MISS:     102845
cpu0_DTLB RFO       ACCESS:    1151661  HIT:    1145739  MISS:       5922
cpu0_DTLB PREFETCH  ACCESS:          0  HIT:          0  MISS:          0
cpu0_DTLB WRITEBACK ACCESS:          0  HIT:          0  MISS:          0
cpu0_DTLB TRANSLATION ACCESS:          0  HIT:          0  MISS:          0
cpu0_DTLB PREFETCH  REQUESTED:          0  ISSUED:          0  USEFUL:          0  USELESS:          0
cpu0_DTLB AVERAGE MISS LATENCY: 13.2982 cycles
cpu0_ITLB TOTAL     ACCESS:    9530556  HIT:    9530514  MISS:         42
cpu0_ITLB LOAD      ACCESS:    9530556  HIT:    9530514  MISS:         42
cpu0_ITLB RFO       ACCESS:          0  HIT:          0  MISS:          0
cpu0_ITLB PREFETCH  ACCESS:          0  HIT:          0  MISS:          0
cpu0_ITLB WRITEBACK ACCESS:          0  HIT:          0  MISS:          0
cpu0_ITLB TRANSLATION ACCESS:          0  HIT:          0  MISS:          0
cpu0_ITLB PREFETCH  REQUESTED:          0  ISSUED:          0  USEFUL:          0  USELESS:          0
cpu0_ITLB AVERAGE MISS LATENCY: 122.881 cycles
cpu0_L1I TOTAL     ACCESS:     299365  HIT:     297794  MISS:       1571
cpu0_L1I LOAD      ACCESS:     299365  HIT:     297794  MISS:       1571
cpu0_L1I RFO       ACCESS:          0  HIT:          0  MISS:          0
cpu0_L1I PREFETCH  ACCESS:          0  HIT:          0  MISS:          0
cpu0_L1I WRITEBACK ACCESS:          0  HIT:          0  MISS:          0
cpu0_L1I TRANSLATION ACCESS:          0  HIT:          0  MISS:          0
cpu0_L1I PREFETCH  REQUESTED:          0  ISSUED:          0  USEFUL:          0  USELESS:          0
cpu0_L1I AVERAGE MISS LATENCY: 180.993 cycles
cpu0_STLB TOTAL     ACCESS:     108809  HIT:      69702  MISS:      39107
cpu0_STLB LOAD      ACCESS:     102887  HIT:      64844  MISS:      38043
cpu0_STLB RFO       ACCESS:       5922  HIT:       4858  MISS:       1064
cpu0_STLB PREFETCH  ACCESS:          0  HIT:          0  MISS:          0
cpu0_STLB WRITEBACK ACCESS:          0  HIT:          0  MISS:          0
cpu0_STLB TRANSLATION ACCESS:          0  HIT:          0  MISS:          0
cpu0_STLB PREFETCH  REQUESTED:          0  ISSUED:          0  USEFUL:          0  USELESS:          0
cpu0_STLB AVERAGE MISS LATENCY: 11.9322 cycles
cpu0_L1D TOTAL     ACCESS:   12141060  HIT:   10641882  MISS:    1499178
cpu0_L1D LOAD      ACCESS:   10345469  HIT:    8967391  MISS:    1378078
cpu0_L1D RFO       ACCESS:    1758570  HIT:    1637969  MISS:     120601
cpu0_L1D PREFETCH  ACCESS:          0  HIT:          0  MISS:          0
cpu0_L1D WRITEBACK ACCESS:          0  HIT:          0  MISS:          0
cpu0_L1D TRANSLATION ACCESS:      37021  HIT:      36522  MISS:        499
cpu0_L1D PREFETCH  REQUESTED:          0  ISSUED:          0  USEFUL:          0  USELESS:          0
cpu0_L1D AVERAGE MISS LATENCY: 81.6783 cycles
cpu0_L2C TOTAL     ACCESS:    1642855  HIT:     358305  MISS:    1284550
cpu0_L2C LOAD      ACCESS:    1379637  HIT:     204274  MISS:    1175363
cpu0_L2C RFO       ACCESS:     120600  HIT:      11965  MISS:     108635
cpu0_L2C PREFETCH  ACCESS:          0  HIT:          0  MISS:          0
cpu0_L2C WRITEBACK ACCESS:     142119  HIT:     141854  MISS:        265
cpu0_L2C TRANSLATION ACCESS:        499  HIT:        212  MISS:        287
cpu0_L2C PREFETCH  REQUESTED:          0  ISSUED:          0  USEFUL:          0  USELESS:          0
cpu0_L2C AVERAGE MISS LATENCY: 82.6555 cycles
LLC TOTAL     ACCESS:    1413651  HIT:     948956  MISS:     464695
LLC LOAD      ACCESS:    1175355  HIT:     728735  MISS:     446620
LLC RFO       ACCESS:     108635  HIT:      98483  MISS:      10152
LLC PREFETCH  ACCESS:          0  HIT:          0  MISS:          0
LLC WRITEBACK ACCESS:     129374  HIT:     121495  MISS:       7879
LLC TRANSLATION ACCESS:        287  HIT:        243  MISS:         44
LLC PREFETCH  REQUESTED:          0  ISSUED:          0  USEFUL:          0  USELESS:          0
LLC AVERAGE MISS LATENCY: 170.441 cycles
Insertion Distribution: 
	LOAD 20702 0 122560 390627 
	RFO 3072 0 8128 3989 
	PREF 0 0 0 0 
	WRITEBACK 0 0 0 8281 
	 2 0 29 33 
Total Prefetch Downgrades: 0

DRAM Statistics
 CHANNEL 0
 RQ ROW_BUFFER_HIT:      76331  ROW_BUFFER_MISS:     380281
 DBUS AVG_CONGESTED_CYCLE:    3.73151
 WQ ROW_BUFFER_HIT:       8108  ROW_BUFFER_MISS:       9160  FULL:          0


CPU 0 Branch Prediction Accuracy: 92.5867% MPKI: 6.65069 Average ROB Occupancy at Mispredict: 177.819
Branch type MPKI
BRANCH_DIRECT_JUMP: 0.00112
BRANCH_INDIRECT: 0
BRANCH_CONDITIONAL: 6.64811
BRANCH_DIRECT_CALL: 0.00071
BRANCH_INDIRECT_CALL: 3e-05
BRANCH_RETURN: 0.00072

