
*** ChampSim Multicore Out-of-Order Simulator ***

Warmup Instructions: 10000000
Simulation Instructions: 100000000
Number of CPUs: 1
Off-chip DRAM Size: 4 GiB Channels: 1 Width: 64-bit Data Rate: 3200 MT/s

VirtualMemory physical capacity: 8588881920 num_ppages: 2096895
VirtualMemory page size: 4096 log2_page_size: 12

CPU 0 runs /datasets/cs240c-wi22-a00-public/data/Assignment2/leslie3d_1116B.trace.xz
CPU 0 Bimodal branch predictor
Basic BTB sets: 1024 ways: 8 indirect buffer size: 4096 RAS size: 64
Initialize SRRIP state
Heartbeat CPU 0 instructions: 10000000 cycles: 3692433 heartbeat IPC: 2.70824 cumulative IPC: 2.70824 (Simulation time: 0 hr 0 min 57 sec) 

Warmup complete CPU 0 instructions: 10000005 cycles: 3692434 (Simulation time: 0 hr 0 min 57 sec) 

Heartbeat CPU 0 instructions: 20000000 cycles: 14432148 heartbeat IPC: 0.931123 cumulative IPC: 0.931123 (Simulation time: 0 hr 2 min 45 sec) 
Heartbeat CPU 0 instructions: 30000004 cycles: 25998778 heartbeat IPC: 0.864556 cumulative IPC: 0.896606 (Simulation time: 0 hr 4 min 38 sec) 
Heartbeat CPU 0 instructions: 40000001 cycles: 39273803 heartbeat IPC: 0.753294 cumulative IPC: 0.843138 (Simulation time: 0 hr 6 min 38 sec) 
Heartbeat CPU 0 instructions: 50000000 cycles: 60196033 heartbeat IPC: 0.47796 cumulative IPC: 0.707919 (Simulation time: 0 hr 9 min 14 sec) 
Heartbeat CPU 0 instructions: 60000001 cycles: 113293252 heartbeat IPC: 0.188334 cumulative IPC: 0.456201 (Simulation time: 0 hr 14 min 7 sec) 
Heartbeat CPU 0 instructions: 70000000 cycles: 128146260 heartbeat IPC: 0.673264 cumulative IPC: 0.482106 (Simulation time: 0 hr 16 min 4 sec) 
Heartbeat CPU 0 instructions: 80000001 cycles: 141764942 heartbeat IPC: 0.734286 cumulative IPC: 0.50698 (Simulation time: 0 hr 17 min 53 sec) 
Heartbeat CPU 0 instructions: 90000004 cycles: 155471297 heartbeat IPC: 0.729589 cumulative IPC: 0.527083 (Simulation time: 0 hr 19 min 41 sec) 
Heartbeat CPU 0 instructions: 100000002 cycles: 168950582 heartbeat IPC: 0.741879 cumulative IPC: 0.544602 (Simulation time: 0 hr 21 min 30 sec) 
Heartbeat CPU 0 instructions: 110000000 cycles: 189884998 heartbeat IPC: 0.477682 cumulative IPC: 0.537078 (Simulation time: 0 hr 23 min 45 sec) 
Finished CPU 0 instructions: 100000000 cycles: 186192565 cumulative IPC: 0.537078 (Simulation time: 0 hr 23 min 45 sec) 

ChampSim completed all CPUs

Region of Interest Statistics

CPU 0 cumulative IPC: 0.537078 instructions: 100000000 cycles: 186192565
cpu0_DTLB TOTAL     ACCESS:   25789943  HIT:   25724246  MISS:      65697
cpu0_DTLB LOAD      ACCESS:   21155257  HIT:   21103604  MISS:      51653
cpu0_DTLB RFO       ACCESS:    4634686  HIT:    4620642  MISS:      14044
cpu0_DTLB PREFETCH  ACCESS:          0  HIT:          0  MISS:          0
cpu0_DTLB WRITEBACK ACCESS:          0  HIT:          0  MISS:          0
cpu0_DTLB TRANSLATION ACCESS:          0  HIT:          0  MISS:          0
cpu0_DTLB PREFETCH  REQUESTED:          0  ISSUED:          0  USEFUL:          0  USELESS:          0
cpu0_DTLB AVERAGE MISS LATENCY: 82.5215 cycles
cpu0_ITLB TOTAL     ACCESS:    2889930  HIT:    2889912  MISS:         18
cpu0_ITLB LOAD      ACCESS:    2889930  HIT:    2889912  MISS:         18
cpu0_ITLB RFO       ACCESS:          0  HIT:          0  MISS:          0
cpu0_ITLB PREFETCH  ACCESS:          0  HIT:          0  MISS:          0
cpu0_ITLB WRITEBACK ACCESS:          0  HIT:          0  MISS:          0
cpu0_ITLB TRANSLATION ACCESS:          0  HIT:          0  MISS:          0
cpu0_ITLB PREFETCH  REQUESTED:          0  ISSUED:          0  USEFUL:          0  USELESS:          0
cpu0_ITLB AVERAGE MISS LATENCY: 424.056 cycles
cpu0_L1I TOTAL     ACCESS:    1781939  HIT:    1781467  MISS:        472
cpu0_L1I LOAD      ACCESS:    1781939  HIT:    1781467  MISS:        472
cpu0_L1I RFO       ACCESS:          0  HIT:          0  MISS:          0
cpu0_L1I PREFETCH  ACCESS:          0  HIT:          0  MISS:          0
cpu0_L1I WRITEBACK ACCESS:          0  HIT:          0  MISS:          0
cpu0_L1I TRANSLATION ACCESS:          0  HIT:          0  MISS:          0
cpu0_L1I PREFETCH  REQUESTED:          0  ISSUED:          0  USEFUL:          0  USELESS:          0
cpu0_L1I AVERAGE MISS LATENCY: 352.786 cycles
cpu0_STLB TOTAL     ACCESS:      65715  HIT:      34091  MISS:      31624
cpu0_STLB LOAD      ACCESS:      51671  HIT:      28205  MISS:      23466
cpu0_STLB RFO       ACCESS:      14044  HIT:       5886  MISS:       8158
cpu0_STLB PREFETCH  ACCESS:          0  HIT:          0  MISS:          0
cpu0_STLB WRITEBACK ACCESS:          0  HIT:          0  MISS:          0
cpu0_STLB TRANSLATION ACCESS:          0  HIT:          0  MISS:          0
cpu0_STLB PREFETCH  REQUESTED:          0  ISSUED:          0  USEFUL:          0  USELESS:          0
cpu0_STLB AVERAGE MISS LATENCY: 152.958 cycles
cpu0_L1D TOTAL     ACCESS:   24379466  HIT:   20969395  MISS:    3410071
cpu0_L1D LOAD      ACCESS:   16224928  HIT:   13607765  MISS:    2617163
cpu0_L1D RFO       ACCESS:    8125177  HIT:    7335913  MISS:     789264
cpu0_L1D PREFETCH  ACCESS:          0  HIT:          0  MISS:          0
cpu0_L1D WRITEBACK ACCESS:          0  HIT:          0  MISS:          0
cpu0_L1D TRANSLATION ACCESS:      29361  HIT:      25717  MISS:       3644
cpu0_L1D PREFETCH  REQUESTED:          0  ISSUED:          0  USEFUL:          0  USELESS:          0
cpu0_L1D AVERAGE MISS LATENCY: 521.318 cycles
cpu0_L2C TOTAL     ACCESS:    4454917  HIT:    1718167  MISS:    2736750
cpu0_L2C LOAD      ACCESS:    2617586  HIT:     507588  MISS:    2109998
cpu0_L2C RFO       ACCESS:     789193  HIT:     162706  MISS:     626487
cpu0_L2C PREFETCH  ACCESS:          0  HIT:          0  MISS:          0
cpu0_L2C WRITEBACK ACCESS:    1044494  HIT:    1044327  MISS:        167
cpu0_L2C TRANSLATION ACCESS:       3644  HIT:       3546  MISS:         98
cpu0_L2C PREFETCH  REQUESTED:          0  ISSUED:          0  USEFUL:          0  USELESS:          0
cpu0_L2C AVERAGE MISS LATENCY: 635.9 cycles
LLC TOTAL     ACCESS:    3497297  HIT:     659672  MISS:    2837625
LLC LOAD      ACCESS:    2109998  HIT:     370538  MISS:    1739460
LLC RFO       ACCESS:     626487  HIT:     120122  MISS:     506365
LLC PREFETCH  ACCESS:          0  HIT:          0  MISS:          0
LLC WRITEBACK ACCESS:     760714  HIT:     168966  MISS:     591748
LLC TRANSLATION ACCESS:         98  HIT:         46  MISS:         52
LLC PREFETCH  REQUESTED:          0  ISSUED:          0  USEFUL:          0  USELESS:          0
LLC AVERAGE MISS LATENCY: 593.004 cycles
Insertion Distribution: 
	LOAD 0 0 372153 1480648 
	RFO 0 0 40863 491904 
	PREF 0 0 0 0 
	WRITEBACK 0 0 0 611270 
	 0 0 38 29 
Total Prefetch Downgrades: 0

DRAM Statistics
 CHANNEL 0
 RQ ROW_BUFFER_HIT:     225552  ROW_BUFFER_MISS:    2020208
 DBUS AVG_CONGESTED_CYCLE:    3.95903
 WQ ROW_BUFFER_HIT:      61259  ROW_BUFFER_MISS:     582208  FULL:      30000


CPU 0 Branch Prediction Accuracy: 96.8713% MPKI: 1.55303 Average ROB Occupancy at Mispredict: 299.836
Branch type MPKI
BRANCH_DIRECT_JUMP: 0.00018
BRANCH_INDIRECT: 0
BRANCH_CONDITIONAL: 1.55065
BRANCH_DIRECT_CALL: 0.00113
BRANCH_INDIRECT_CALL: 0
BRANCH_RETURN: 0.00107

