
*** ChampSim Multicore Out-of-Order Simulator ***

Warmup Instructions: 10000000
Simulation Instructions: 100000000
Number of CPUs: 1
Off-chip DRAM Size: 4 GiB Channels: 1 Width: 64-bit Data Rate: 3200 MT/s

VirtualMemory physical capacity: 8588881920 num_ppages: 2096895
VirtualMemory page size: 4096 log2_page_size: 12

CPU 0 runs /datasets/cs240c-wi22-a00-public/data/Assignment2/mcf_46B.trace.xz
CPU 0 Bimodal branch predictor
Basic BTB sets: 1024 ways: 8 indirect buffer size: 4096 RAS size: 64
Initialize SRRIP state
Heartbeat CPU 0 instructions: 10000002 cycles: 3434384 heartbeat IPC: 2.91173 cumulative IPC: 2.91173 (Simulation time: 0 hr 0 min 40 sec) 

Warmup complete CPU 0 instructions: 10000002 cycles: 3434384 (Simulation time: 0 hr 0 min 40 sec) 

Heartbeat CPU 0 instructions: 20000001 cycles: 108976013 heartbeat IPC: 0.0947493 cumulative IPC: 0.0947493 (Simulation time: 0 hr 3 min 45 sec) 
Heartbeat CPU 0 instructions: 30000004 cycles: 211852089 heartbeat IPC: 0.0972044 cumulative IPC: 0.0959611 (Simulation time: 0 hr 6 min 41 sec) 
Heartbeat CPU 0 instructions: 40000004 cycles: 316859608 heartbeat IPC: 0.0952313 cumulative IPC: 0.0957166 (Simulation time: 0 hr 9 min 31 sec) 
Heartbeat CPU 0 instructions: 50000003 cycles: 419146771 heartbeat IPC: 0.097764 cumulative IPC: 0.0962204 (Simulation time: 0 hr 12 min 14 sec) 
Heartbeat CPU 0 instructions: 60000000 cycles: 526788765 heartbeat IPC: 0.0929005 cumulative IPC: 0.0955376 (Simulation time: 0 hr 15 min 7 sec) 
Heartbeat CPU 0 instructions: 70000004 cycles: 635509146 heartbeat IPC: 0.0919791 cumulative IPC: 0.0949255 (Simulation time: 0 hr 18 min 5 sec) 
Heartbeat CPU 0 instructions: 80000003 cycles: 740103864 heartbeat IPC: 0.0956071 cumulative IPC: 0.0950223 (Simulation time: 0 hr 20 min 56 sec) 
Heartbeat CPU 0 instructions: 90000001 cycles: 845353938 heartbeat IPC: 0.0950118 cumulative IPC: 0.095021 (Simulation time: 0 hr 23 min 45 sec) 
Heartbeat CPU 0 instructions: 100000001 cycles: 951873548 heartbeat IPC: 0.0938794 cumulative IPC: 0.0948927 (Simulation time: 0 hr 26 min 44 sec) 
Heartbeat CPU 0 instructions: 110000002 cycles: 1051147940 heartbeat IPC: 0.100731 cumulative IPC: 0.0954459 (Simulation time: 0 hr 29 min 28 sec) 
Finished CPU 0 instructions: 100000000 cycles: 1047713556 cumulative IPC: 0.0954459 (Simulation time: 0 hr 29 min 28 sec) 

ChampSim completed all CPUs

Region of Interest Statistics

CPU 0 cumulative IPC: 0.0954459 instructions: 100000000 cycles: 1047713556
cpu0_DTLB TOTAL     ACCESS:   23836636  HIT:   14568148  MISS:    9268488
cpu0_DTLB LOAD      ACCESS:   20105875  HIT:   11365176  MISS:    8740699
cpu0_DTLB RFO       ACCESS:    3730761  HIT:    3202972  MISS:     527789
cpu0_DTLB PREFETCH  ACCESS:          0  HIT:          0  MISS:          0
cpu0_DTLB WRITEBACK ACCESS:          0  HIT:          0  MISS:          0
cpu0_DTLB TRANSLATION ACCESS:          0  HIT:          0  MISS:          0
cpu0_DTLB PREFETCH  REQUESTED:          0  ISSUED:          0  USEFUL:          0  USELESS:          0
cpu0_DTLB AVERAGE MISS LATENCY: 11.5887 cycles
cpu0_ITLB TOTAL     ACCESS:   12718659  HIT:   12718659  MISS:          0
cpu0_ITLB LOAD      ACCESS:   12718659  HIT:   12718659  MISS:          0
cpu0_ITLB RFO       ACCESS:          0  HIT:          0  MISS:          0
cpu0_ITLB PREFETCH  ACCESS:          0  HIT:          0  MISS:          0
cpu0_ITLB WRITEBACK ACCESS:          0  HIT:          0  MISS:          0
cpu0_ITLB TRANSLATION ACCESS:          0  HIT:          0  MISS:          0
cpu0_ITLB PREFETCH  REQUESTED:          0  ISSUED:          0  USEFUL:          0  USELESS:          0
cpu0_ITLB AVERAGE MISS LATENCY: -nan cycles
cpu0_L1I TOTAL     ACCESS:         52  HIT:         52  MISS:          0
cpu0_L1I LOAD      ACCESS:         52  HIT:         52  MISS:          0
cpu0_L1I RFO       ACCESS:          0  HIT:          0  MISS:          0
cpu0_L1I PREFETCH  ACCESS:          0  HIT:          0  MISS:          0
cpu0_L1I WRITEBACK ACCESS:          0  HIT:          0  MISS:          0
cpu0_L1I TRANSLATION ACCESS:          0  HIT:          0  MISS:          0
cpu0_L1I PREFETCH  REQUESTED:          0  ISSUED:          0  USEFUL:          0  USELESS:          0
cpu0_L1I AVERAGE MISS LATENCY: -nan cycles
cpu0_STLB TOTAL     ACCESS:    9268488  HIT:    7944919  MISS:    1323569
cpu0_STLB LOAD      ACCESS:    8740699  HIT:    7428234  MISS:    1312465
cpu0_STLB RFO       ACCESS:     527789  HIT:     516685  MISS:      11104
cpu0_STLB PREFETCH  ACCESS:          0  HIT:          0  MISS:          0
cpu0_STLB WRITEBACK ACCESS:          0  HIT:          0  MISS:          0
cpu0_STLB TRANSLATION ACCESS:          0  HIT:          0  MISS:          0
cpu0_STLB PREFETCH  REQUESTED:          0  ISSUED:          0  USEFUL:          0  USELESS:          0
cpu0_STLB AVERAGE MISS LATENCY: 18.0552 cycles
cpu0_L1D TOTAL     ACCESS:   28041248  HIT:   16263928  MISS:   11777320
cpu0_L1D LOAD      ACCESS:   21742739  HIT:   10439562  MISS:   11303177
cpu0_L1D RFO       ACCESS:    4979267  HIT:    4680421  MISS:     298846
cpu0_L1D PREFETCH  ACCESS:          0  HIT:          0  MISS:          0
cpu0_L1D WRITEBACK ACCESS:          0  HIT:          0  MISS:          0
cpu0_L1D TRANSLATION ACCESS:    1319242  HIT:    1143945  MISS:     175297
cpu0_L1D PREFETCH  REQUESTED:          0  ISSUED:          0  USEFUL:          0  USELESS:          0
cpu0_L1D AVERAGE MISS LATENCY: 242.657 cycles
cpu0_L2C TOTAL     ACCESS:   14261848  HIT:    5814378  MISS:    8447470
cpu0_L2C LOAD      ACCESS:   11302724  HIT:    3070222  MISS:    8232502
cpu0_L2C RFO       ACCESS:     298835  HIT:     121297  MISS:     177538
cpu0_L2C PREFETCH  ACCESS:          0  HIT:          0  MISS:          0
cpu0_L2C WRITEBACK ACCESS:    2484992  HIT:    2484396  MISS:        596
cpu0_L2C TRANSLATION ACCESS:     175297  HIT:     138463  MISS:      36834
cpu0_L2C PREFETCH  REQUESTED:          0  ISSUED:          0  USEFUL:          0  USELESS:          0
cpu0_L2C AVERAGE MISS LATENCY: 322.865 cycles
LLC TOTAL     ACCESS:   10355095  HIT:    4172049  MISS:    6183046
LLC LOAD      ACCESS:    8232502  HIT:    2897773  MISS:    5334729
LLC RFO       ACCESS:     177538  HIT:     114186  MISS:      63352
LLC PREFETCH  ACCESS:          0  HIT:          0  MISS:          0
LLC WRITEBACK ACCESS:    1908221  HIT:    1133087  MISS:     775134
LLC TRANSLATION ACCESS:      36834  HIT:      27003  MISS:       9831
LLC PREFETCH  REQUESTED:          0  ISSUED:          0  USEFUL:          0  USELESS:          0
LLC AVERAGE MISS LATENCY: 412.419 cycles
Insertion Distribution: 
	LOAD 301083 0 140349 5412799 
	RFO 45996 0 14714 10392 
	PREF 0 0 0 0 
	WRITEBACK 0 0 0 843533 
	 1 0 242 9956 
Total Prefetch Downgrades: 0

DRAM Statistics
 CHANNEL 0
 RQ ROW_BUFFER_HIT:       9644  ROW_BUFFER_MISS:    5397458
 DBUS AVG_CONGESTED_CYCLE:    3.94137
 WQ ROW_BUFFER_HIT:      30752  ROW_BUFFER_MISS:    1028587  FULL:          0


CPU 0 Branch Prediction Accuracy: 85.442% MPKI: 39.3219 Average ROB Occupancy at Mispredict: 18.9373
Branch type MPKI
BRANCH_DIRECT_JUMP: 0
BRANCH_INDIRECT: 0
BRANCH_CONDITIONAL: 39.3219
BRANCH_DIRECT_CALL: 0
BRANCH_INDIRECT_CALL: 0
BRANCH_RETURN: 0

