
*** ChampSim Multicore Out-of-Order Simulator ***

Warmup Instructions: 10000000
Simulation Instructions: 100000000
Number of CPUs: 1
Off-chip DRAM Size: 4 GiB Channels: 1 Width: 64-bit Data Rate: 3200 MT/s

VirtualMemory physical capacity: 8588881920 num_ppages: 2096895
VirtualMemory page size: 4096 log2_page_size: 12

CPU 0 runs /datasets/cs240c-wi22-a00-public/data/Assignment2/perlbench_135B.trace.xz
CPU 0 Bimodal branch predictor
Basic BTB sets: 1024 ways: 8 indirect buffer size: 4096 RAS size: 64
Initialize SRRIP state
Heartbeat CPU 0 instructions: 10000000 cycles: 2501133 heartbeat IPC: 3.99819 cumulative IPC: 3.99819 (Simulation time: 0 hr 0 min 32 sec) 

Warmup complete CPU 0 instructions: 10000004 cycles: 2501134 (Simulation time: 0 hr 0 min 32 sec) 

Heartbeat CPU 0 instructions: 20000003 cycles: 16327476 heartbeat IPC: 0.723257 cumulative IPC: 0.723257 (Simulation time: 0 hr 1 min 25 sec) 
Heartbeat CPU 0 instructions: 30000004 cycles: 29126287 heartbeat IPC: 0.781323 cumulative IPC: 0.751169 (Simulation time: 0 hr 2 min 14 sec) 
Heartbeat CPU 0 instructions: 40000001 cycles: 40579852 heartbeat IPC: 0.87309 cumulative IPC: 0.787842 (Simulation time: 0 hr 3 min 1 sec) 
Heartbeat CPU 0 instructions: 50000000 cycles: 53181725 heartbeat IPC: 0.793533 cumulative IPC: 0.789257 (Simulation time: 0 hr 3 min 49 sec) 
Heartbeat CPU 0 instructions: 60000000 cycles: 64775578 heartbeat IPC: 0.862526 cumulative IPC: 0.802898 (Simulation time: 0 hr 4 min 34 sec) 
Heartbeat CPU 0 instructions: 70000001 cycles: 77795112 heartbeat IPC: 0.768077 cumulative IPC: 0.796876 (Simulation time: 0 hr 5 min 21 sec) 
Heartbeat CPU 0 instructions: 80000000 cycles: 88805481 heartbeat IPC: 0.908235 cumulative IPC: 0.811083 (Simulation time: 0 hr 6 min 3 sec) 
Heartbeat CPU 0 instructions: 90000004 cycles: 99690474 heartbeat IPC: 0.918696 cumulative IPC: 0.823136 (Simulation time: 0 hr 6 min 42 sec) 
Heartbeat CPU 0 instructions: 100000000 cycles: 113184953 heartbeat IPC: 0.741044 cumulative IPC: 0.813127 (Simulation time: 0 hr 7 min 30 sec) 
Heartbeat CPU 0 instructions: 110000000 cycles: 126486143 heartbeat IPC: 0.751812 cumulative IPC: 0.806549 (Simulation time: 0 hr 8 min 16 sec) 
Finished CPU 0 instructions: 100000000 cycles: 123985011 cumulative IPC: 0.806549 (Simulation time: 0 hr 8 min 16 sec) 

ChampSim completed all CPUs

Region of Interest Statistics

CPU 0 cumulative IPC: 0.806549 instructions: 100000000 cycles: 123985011
cpu0_DTLB TOTAL     ACCESS:   24834092  HIT:   24177345  MISS:     656747
cpu0_DTLB LOAD      ACCESS:   16163462  HIT:   15592015  MISS:     571447
cpu0_DTLB RFO       ACCESS:    8670630  HIT:    8585330  MISS:      85300
cpu0_DTLB PREFETCH  ACCESS:          0  HIT:          0  MISS:          0
cpu0_DTLB WRITEBACK ACCESS:          0  HIT:          0  MISS:          0
cpu0_DTLB TRANSLATION ACCESS:          0  HIT:          0  MISS:          0
cpu0_DTLB PREFETCH  REQUESTED:          0  ISSUED:          0  USEFUL:          0  USELESS:          0
cpu0_DTLB AVERAGE MISS LATENCY: 9.30953 cycles
cpu0_ITLB TOTAL     ACCESS:    8520334  HIT:    8442170  MISS:      78164
cpu0_ITLB LOAD      ACCESS:    8520334  HIT:    8442170  MISS:      78164
cpu0_ITLB RFO       ACCESS:          0  HIT:          0  MISS:          0
cpu0_ITLB PREFETCH  ACCESS:          0  HIT:          0  MISS:          0
cpu0_ITLB WRITEBACK ACCESS:          0  HIT:          0  MISS:          0
cpu0_ITLB TRANSLATION ACCESS:          0  HIT:          0  MISS:          0
cpu0_ITLB PREFETCH  REQUESTED:          0  ISSUED:          0  USEFUL:          0  USELESS:          0
cpu0_ITLB AVERAGE MISS LATENCY: 9.11647 cycles
cpu0_L1I TOTAL     ACCESS:    9977144  HIT:    9296832  MISS:     680312
cpu0_L1I LOAD      ACCESS:    9977144  HIT:    9296832  MISS:     680312
cpu0_L1I RFO       ACCESS:          0  HIT:          0  MISS:          0
cpu0_L1I PREFETCH  ACCESS:          0  HIT:          0  MISS:          0
cpu0_L1I WRITEBACK ACCESS:          0  HIT:          0  MISS:          0
cpu0_L1I TRANSLATION ACCESS:          0  HIT:          0  MISS:          0
cpu0_L1I PREFETCH  REQUESTED:          0  ISSUED:          0  USEFUL:          0  USELESS:          0
cpu0_L1I AVERAGE MISS LATENCY: 12.2565 cycles
cpu0_STLB TOTAL     ACCESS:     734911  HIT:     726458  MISS:       8453
cpu0_STLB LOAD      ACCESS:     649611  HIT:     642246  MISS:       7365
cpu0_STLB RFO       ACCESS:      85300  HIT:      84212  MISS:       1088
cpu0_STLB PREFETCH  ACCESS:          0  HIT:          0  MISS:          0
cpu0_STLB WRITEBACK ACCESS:          0  HIT:          0  MISS:          0
cpu0_STLB TRANSLATION ACCESS:          0  HIT:          0  MISS:          0
cpu0_STLB PREFETCH  REQUESTED:          0  ISSUED:          0  USEFUL:          0  USELESS:          0
cpu0_STLB AVERAGE MISS LATENCY: 24.6405 cycles
cpu0_L1D TOTAL     ACCESS:   32038629  HIT:   31085837  MISS:     952792
cpu0_L1D LOAD      ACCESS:   16947288  HIT:   16082838  MISS:     864450
cpu0_L1D RFO       ACCESS:   15082925  HIT:   14996145  MISS:      86780
cpu0_L1D PREFETCH  ACCESS:          0  HIT:          0  MISS:          0
cpu0_L1D WRITEBACK ACCESS:          0  HIT:          0  MISS:          0
cpu0_L1D TRANSLATION ACCESS:       8416  HIT:       6854  MISS:       1562
cpu0_L1D PREFETCH  REQUESTED:          0  ISSUED:          0  USEFUL:          0  USELESS:          0
cpu0_L1D AVERAGE MISS LATENCY: 17.8505 cycles
cpu0_L2C TOTAL     ACCESS:    1889412  HIT:    1714332  MISS:     175080
cpu0_L2C LOAD      ACCESS:    1544748  HIT:    1392623  MISS:     152125
cpu0_L2C RFO       ACCESS:      86773  HIT:      64518  MISS:      22255
cpu0_L2C PREFETCH  ACCESS:          0  HIT:          0  MISS:          0
cpu0_L2C WRITEBACK ACCESS:     256329  HIT:     255859  MISS:        470
cpu0_L2C TRANSLATION ACCESS:       1562  HIT:       1332  MISS:        230
cpu0_L2C PREFETCH  REQUESTED:          0  ISSUED:          0  USEFUL:          0  USELESS:          0
cpu0_L2C AVERAGE MISS LATENCY: 42.0102 cycles
LLC TOTAL     ACCESS:     226405  HIT:     200600  MISS:      25805
LLC LOAD      ACCESS:     152125  HIT:     132311  MISS:      19814
LLC RFO       ACCESS:      22255  HIT:      17018  MISS:       5237
LLC PREFETCH  ACCESS:          0  HIT:          0  MISS:          0
LLC WRITEBACK ACCESS:      51795  HIT:      51058  MISS:        737
LLC TRANSLATION ACCESS:        230  HIT:        213  MISS:         17
LLC PREFETCH  REQUESTED:          0  ISSUED:          0  USEFUL:          0  USELESS:          0
LLC AVERAGE MISS LATENCY: 142.929 cycles
Insertion Distribution: 
	LOAD 6415 0 33385 702 
	RFO 419 0 6216 580 
	PREF 0 0 0 0 
	WRITEBACK 0 0 0 740 
	 4 0 37 0 
Total Prefetch Downgrades: 0

DRAM Statistics
 CHANNEL 0
 RQ ROW_BUFFER_HIT:       4982  ROW_BUFFER_MISS:      20086
 DBUS AVG_CONGESTED_CYCLE:    3.83471
 WQ ROW_BUFFER_HIT:       1317  ROW_BUFFER_MISS:       3962  FULL:          0


CPU 0 Branch Prediction Accuracy: 94.5426% MPKI: 12.0745 Average ROB Occupancy at Mispredict: 40.8928
Branch type MPKI
BRANCH_DIRECT_JUMP: 0.00217
BRANCH_INDIRECT: 0.80239
BRANCH_CONDITIONAL: 9.8183
BRANCH_DIRECT_CALL: 0.00216
BRANCH_INDIRECT_CALL: 1.42497
BRANCH_RETURN: 0.02455

