
*** ChampSim Multicore Out-of-Order Simulator ***

Warmup Instructions: 10000000
Simulation Instructions: 100000000
Number of CPUs: 1
Off-chip DRAM Size: 4 GiB Channels: 1 Width: 64-bit Data Rate: 3200 MT/s

VirtualMemory physical capacity: 8588881920 num_ppages: 2096895
VirtualMemory page size: 4096 log2_page_size: 12

CPU 0 runs /datasets/cs240c-wi22-a00-public/data/Assignment2/astar_313B.trace.xz
CPU 0 Bimodal branch predictor
Basic BTB sets: 1024 ways: 8 indirect buffer size: 4096 RAS size: 64
Initialize SRRIP state
Heartbeat CPU 0 instructions: 10000003 cycles: 3955933 heartbeat IPC: 2.52785 cumulative IPC: 2.52785 (Simulation time: 0 hr 0 min 53 sec) 

Warmup complete CPU 0 instructions: 10000003 cycles: 3955933 (Simulation time: 0 hr 0 min 53 sec) 

Heartbeat CPU 0 instructions: 20000004 cycles: 61035577 heartbeat IPC: 0.175194 cumulative IPC: 0.175194 (Simulation time: 0 hr 3 min 2 sec) 
Heartbeat CPU 0 instructions: 30000001 cycles: 119486196 heartbeat IPC: 0.171085 cumulative IPC: 0.173115 (Simulation time: 0 hr 5 min 39 sec) 
Heartbeat CPU 0 instructions: 40000000 cycles: 175424590 heartbeat IPC: 0.178768 cumulative IPC: 0.174959 (Simulation time: 0 hr 8 min 16 sec) 
Heartbeat CPU 0 instructions: 50000001 cycles: 226684011 heartbeat IPC: 0.195086 cumulative IPC: 0.179591 (Simulation time: 0 hr 10 min 16 sec) 
Heartbeat CPU 0 instructions: 60000000 cycles: 281764744 heartbeat IPC: 0.181552 cumulative IPC: 0.17998 (Simulation time: 0 hr 12 min 32 sec) 
Heartbeat CPU 0 instructions: 70000000 cycles: 336705638 heartbeat IPC: 0.182014 cumulative IPC: 0.180316 (Simulation time: 0 hr 14 min 46 sec) 
Heartbeat CPU 0 instructions: 80000000 cycles: 388659438 heartbeat IPC: 0.192479 cumulative IPC: 0.181958 (Simulation time: 0 hr 16 min 42 sec) 
Heartbeat CPU 0 instructions: 90000001 cycles: 441008278 heartbeat IPC: 0.191026 cumulative IPC: 0.183044 (Simulation time: 0 hr 18 min 42 sec) 
Heartbeat CPU 0 instructions: 100000000 cycles: 493469541 heartbeat IPC: 0.190617 cumulative IPC: 0.183856 (Simulation time: 0 hr 20 min 43 sec) 
Heartbeat CPU 0 instructions: 110000000 cycles: 548208278 heartbeat IPC: 0.182686 cumulative IPC: 0.183738 (Simulation time: 0 hr 23 min 2 sec) 
Finished CPU 0 instructions: 100000001 cycles: 544252346 cumulative IPC: 0.183738 (Simulation time: 0 hr 23 min 2 sec) 

ChampSim completed all CPUs

Region of Interest Statistics

CPU 0 cumulative IPC: 0.183738 instructions: 100000001 cycles: 544252346
cpu0_DTLB TOTAL     ACCESS:   34373337  HIT:   30554598  MISS:    3818739
cpu0_DTLB LOAD      ACCESS:   26429059  HIT:   23807545  MISS:    2621514
cpu0_DTLB RFO       ACCESS:    7944278  HIT:    6747053  MISS:    1197225
cpu0_DTLB PREFETCH  ACCESS:          0  HIT:          0  MISS:          0
cpu0_DTLB WRITEBACK ACCESS:          0  HIT:          0  MISS:          0
cpu0_DTLB TRANSLATION ACCESS:          0  HIT:          0  MISS:          0
cpu0_DTLB PREFETCH  REQUESTED:          0  ISSUED:          0  USEFUL:          0  USELESS:          0
cpu0_DTLB AVERAGE MISS LATENCY: 141.29 cycles
cpu0_ITLB TOTAL     ACCESS:   11440139  HIT:   11440139  MISS:          0
cpu0_ITLB LOAD      ACCESS:   11440139  HIT:   11440139  MISS:          0
cpu0_ITLB RFO       ACCESS:          0  HIT:          0  MISS:          0
cpu0_ITLB PREFETCH  ACCESS:          0  HIT:          0  MISS:          0
cpu0_ITLB WRITEBACK ACCESS:          0  HIT:          0  MISS:          0
cpu0_ITLB TRANSLATION ACCESS:          0  HIT:          0  MISS:          0
cpu0_ITLB PREFETCH  REQUESTED:          0  ISSUED:          0  USEFUL:          0  USELESS:          0
cpu0_ITLB AVERAGE MISS LATENCY: -nan cycles
cpu0_L1I TOTAL     ACCESS:        129  HIT:        126  MISS:          3
cpu0_L1I LOAD      ACCESS:        129  HIT:        126  MISS:          3
cpu0_L1I RFO       ACCESS:          0  HIT:          0  MISS:          0
cpu0_L1I PREFETCH  ACCESS:          0  HIT:          0  MISS:          0
cpu0_L1I WRITEBACK ACCESS:          0  HIT:          0  MISS:          0
cpu0_L1I TRANSLATION ACCESS:          0  HIT:          0  MISS:          0
cpu0_L1I PREFETCH  REQUESTED:          0  ISSUED:          0  USEFUL:          0  USELESS:          0
cpu0_L1I AVERAGE MISS LATENCY: 197 cycles
cpu0_STLB TOTAL     ACCESS:    3818739  HIT:    1896150  MISS:    1922589
cpu0_STLB LOAD      ACCESS:    2621514  HIT:    1784323  MISS:     837191
cpu0_STLB RFO       ACCESS:    1197225  HIT:     111827  MISS:    1085398
cpu0_STLB PREFETCH  ACCESS:          0  HIT:          0  MISS:          0
cpu0_STLB WRITEBACK ACCESS:          0  HIT:          0  MISS:          0
cpu0_STLB TRANSLATION ACCESS:          0  HIT:          0  MISS:          0
cpu0_STLB PREFETCH  REQUESTED:          0  ISSUED:          0  USEFUL:          0  USELESS:          0
cpu0_STLB AVERAGE MISS LATENCY: 262.568 cycles
cpu0_L1D TOTAL     ACCESS:   35959242  HIT:   30106492  MISS:    5852750
cpu0_L1D LOAD      ACCESS:   24412856  HIT:   20481889  MISS:    3930967
cpu0_L1D RFO       ACCESS:   10121068  HIT:    8210413  MISS:    1910655
cpu0_L1D PREFETCH  ACCESS:          0  HIT:          0  MISS:          0
cpu0_L1D WRITEBACK ACCESS:          0  HIT:          0  MISS:          0
cpu0_L1D TRANSLATION ACCESS:    1425318  HIT:    1414190  MISS:      11128
cpu0_L1D PREFETCH  REQUESTED:          0  ISSUED:          0  USEFUL:          0  USELESS:          0
cpu0_L1D AVERAGE MISS LATENCY: 343.68 cycles
cpu0_L2C TOTAL     ACCESS:    8697462  HIT:    4509753  MISS:    4187709
cpu0_L2C LOAD      ACCESS:    3930960  HIT:    1549509  MISS:    2381451
cpu0_L2C RFO       ACCESS:    1910655  HIT:     106376  MISS:    1804279
cpu0_L2C PREFETCH  ACCESS:          0  HIT:          0  MISS:          0
cpu0_L2C WRITEBACK ACCESS:    2844719  HIT:    2844554  MISS:        165
cpu0_L2C TRANSLATION ACCESS:      11128  HIT:       9314  MISS:       1814
cpu0_L2C PREFETCH  REQUESTED:          0  ISSUED:          0  USEFUL:          0  USELESS:          0
cpu0_L2C AVERAGE MISS LATENCY: 464.92 cycles
LLC TOTAL     ACCESS:    6917967  HIT:    2816869  MISS:    4101098
LLC LOAD      ACCESS:    2381450  HIT:     551593  MISS:    1829857
LLC RFO       ACCESS:    1804278  HIT:     809055  MISS:     995223
LLC PREFETCH  ACCESS:          0  HIT:          0  MISS:          0
LLC WRITEBACK ACCESS:    2730425  HIT:    1454449  MISS:    1275976
LLC TRANSLATION ACCESS:       1814  HIT:       1772  MISS:         42
LLC PREFETCH  REQUESTED:          0  ISSUED:          0  USEFUL:          0  USELESS:          0
LLC AVERAGE MISS LATENCY: 453.293 cycles
Insertion Distribution: 
	LOAD 74919 0 109501 1853240 
	RFO 0 0 38191 1228532 
	PREF 0 0 0 0 
	WRITEBACK 0 0 0 1535317 
	 8 0 48 72 
Total Prefetch Downgrades: 0

DRAM Statistics
 CHANNEL 0
 RQ ROW_BUFFER_HIT:      22805  ROW_BUFFER_MISS:    2802073
 DBUS AVG_CONGESTED_CYCLE:    3.99729
 WQ ROW_BUFFER_HIT:     166081  ROW_BUFFER_MISS:    1217567  FULL:      30967


CPU 0 Branch Prediction Accuracy: 88.672% MPKI: 23.9003 Average ROB Occupancy at Mispredict: 22.8517
Branch type MPKI
BRANCH_DIRECT_JUMP: 1e-05
BRANCH_INDIRECT: 0
BRANCH_CONDITIONAL: 23.8999
BRANCH_DIRECT_CALL: 0
BRANCH_INDIRECT_CALL: 0.00038
BRANCH_RETURN: 0

