
*** ChampSim Multicore Out-of-Order Simulator ***

Warmup Instructions: 10000000
Simulation Instructions: 100000000
Number of CPUs: 1
Off-chip DRAM Size: 4 GiB Channels: 1 Width: 64-bit Data Rate: 3200 MT/s

VirtualMemory physical capacity: 8588881920 num_ppages: 2096895
VirtualMemory page size: 4096 log2_page_size: 12

CPU 0 runs /datasets/cs240c-wi22-a00-public/data/Assignment2/GemsFDTD_109B.trace.xz
CPU 0 Bimodal branch predictor
Basic BTB sets: 1024 ways: 8 indirect buffer size: 4096 RAS size: 64
Initialize SRRIP state
Heartbeat CPU 0 instructions: 10000004 cycles: 4294006 heartbeat IPC: 2.32883 cumulative IPC: 2.32883 (Simulation time: 0 hr 0 min 53 sec) 

Warmup complete CPU 0 instructions: 10000004 cycles: 4294006 (Simulation time: 0 hr 0 min 53 sec) 

Heartbeat CPU 0 instructions: 20000000 cycles: 34788310 heartbeat IPC: 0.32793 cumulative IPC: 0.32793 (Simulation time: 0 hr 4 min 3 sec) 
Heartbeat CPU 0 instructions: 30000004 cycles: 55830577 heartbeat IPC: 0.475234 cumulative IPC: 0.388074 (Simulation time: 0 hr 5 min 51 sec) 
Heartbeat CPU 0 instructions: 40000004 cycles: 61855682 heartbeat IPC: 1.65972 cumulative IPC: 0.52118 (Simulation time: 0 hr 6 min 36 sec) 
Heartbeat CPU 0 instructions: 50000002 cycles: 82650728 heartbeat IPC: 0.480884 cumulative IPC: 0.510486 (Simulation time: 0 hr 8 min 29 sec) 
Heartbeat CPU 0 instructions: 60000002 cycles: 124053635 heartbeat IPC: 0.241529 cumulative IPC: 0.417503 (Simulation time: 0 hr 12 min 30 sec) 
Heartbeat CPU 0 instructions: 70000001 cycles: 163831827 heartbeat IPC: 0.251394 cumulative IPC: 0.376086 (Simulation time: 0 hr 16 min 49 sec) 
Heartbeat CPU 0 instructions: 80000004 cycles: 203535480 heartbeat IPC: 0.251866 cumulative IPC: 0.351332 (Simulation time: 0 hr 21 min 7 sec) 
Heartbeat CPU 0 instructions: 90000000 cycles: 243220963 heartbeat IPC: 0.251981 cumulative IPC: 0.33483 (Simulation time: 0 hr 25 min 39 sec) 
Heartbeat CPU 0 instructions: 100000000 cycles: 282949905 heartbeat IPC: 0.251706 cumulative IPC: 0.322979 (Simulation time: 0 hr 30 min 4 sec) 
Heartbeat CPU 0 instructions: 110000004 cycles: 322652290 heartbeat IPC: 0.251874 cumulative IPC: 0.314112 (Simulation time: 0 hr 34 min 25 sec) 
Finished CPU 0 instructions: 100000000 cycles: 318358284 cumulative IPC: 0.314112 (Simulation time: 0 hr 34 min 25 sec) 

ChampSim completed all CPUs

Region of Interest Statistics

CPU 0 cumulative IPC: 0.314112 instructions: 100000000 cycles: 318358284
cpu0_DTLB TOTAL     ACCESS:   26453946  HIT:   26254523  MISS:     199423
cpu0_DTLB LOAD      ACCESS:   21024156  HIT:   20826733  MISS:     197423
cpu0_DTLB RFO       ACCESS:    5429790  HIT:    5427790  MISS:       2000
cpu0_DTLB PREFETCH  ACCESS:          0  HIT:          0  MISS:          0
cpu0_DTLB WRITEBACK ACCESS:          0  HIT:          0  MISS:          0
cpu0_DTLB TRANSLATION ACCESS:          0  HIT:          0  MISS:          0
cpu0_DTLB PREFETCH  REQUESTED:          0  ISSUED:          0  USEFUL:          0  USELESS:          0
cpu0_DTLB AVERAGE MISS LATENCY: 444.236 cycles
cpu0_ITLB TOTAL     ACCESS:    2047797  HIT:    2047779  MISS:         18
cpu0_ITLB LOAD      ACCESS:    2047797  HIT:    2047779  MISS:         18
cpu0_ITLB RFO       ACCESS:          0  HIT:          0  MISS:          0
cpu0_ITLB PREFETCH  ACCESS:          0  HIT:          0  MISS:          0
cpu0_ITLB WRITEBACK ACCESS:          0  HIT:          0  MISS:          0
cpu0_ITLB TRANSLATION ACCESS:          0  HIT:          0  MISS:          0
cpu0_ITLB PREFETCH  REQUESTED:          0  ISSUED:          0  USEFUL:          0  USELESS:          0
cpu0_ITLB AVERAGE MISS LATENCY: 249.444 cycles
cpu0_L1I TOTAL     ACCESS:    1722876  HIT:    1722446  MISS:        430
cpu0_L1I LOAD      ACCESS:    1722876  HIT:    1722446  MISS:        430
cpu0_L1I RFO       ACCESS:          0  HIT:          0  MISS:          0
cpu0_L1I PREFETCH  ACCESS:          0  HIT:          0  MISS:          0
cpu0_L1I WRITEBACK ACCESS:          0  HIT:          0  MISS:          0
cpu0_L1I TRANSLATION ACCESS:          0  HIT:          0  MISS:          0
cpu0_L1I PREFETCH  REQUESTED:          0  ISSUED:          0  USEFUL:          0  USELESS:          0
cpu0_L1I AVERAGE MISS LATENCY: 307.812 cycles
cpu0_STLB TOTAL     ACCESS:     199441  HIT:      33980  MISS:     165461
cpu0_STLB LOAD      ACCESS:     197441  HIT:      32674  MISS:     164767
cpu0_STLB RFO       ACCESS:       2000  HIT:       1306  MISS:        694
cpu0_STLB PREFETCH  ACCESS:          0  HIT:          0  MISS:          0
cpu0_STLB WRITEBACK ACCESS:          0  HIT:          0  MISS:          0
cpu0_STLB TRANSLATION ACCESS:          0  HIT:          0  MISS:          0
cpu0_STLB PREFETCH  REQUESTED:          0  ISSUED:          0  USEFUL:          0  USELESS:          0
cpu0_STLB AVERAGE MISS LATENCY: 524.483 cycles
cpu0_L1D TOTAL     ACCESS:   22810049  HIT:   19580073  MISS:    3229976
cpu0_L1D LOAD      ACCESS:   13713132  HIT:   10613451  MISS:    3099681
cpu0_L1D RFO       ACCESS:    9007345  HIT:    8879732  MISS:     127613
cpu0_L1D PREFETCH  ACCESS:          0  HIT:          0  MISS:          0
cpu0_L1D WRITEBACK ACCESS:          0  HIT:          0  MISS:          0
cpu0_L1D TRANSLATION ACCESS:      89572  HIT:      86890  MISS:       2682
cpu0_L1D PREFETCH  REQUESTED:          0  ISSUED:          0  USEFUL:          0  USELESS:          0
cpu0_L1D AVERAGE MISS LATENCY: 731.564 cycles
cpu0_L2C TOTAL     ACCESS:    4595238  HIT:    1423376  MISS:    3171862
cpu0_L2C LOAD      ACCESS:    3100111  HIT:      41004  MISS:    3059107
cpu0_L2C RFO       ACCESS:     127613  HIT:      15151  MISS:     112462
cpu0_L2C PREFETCH  ACCESS:          0  HIT:          0  MISS:          0
cpu0_L2C WRITEBACK ACCESS:    1364832  HIT:    1364732  MISS:        100
cpu0_L2C TRANSLATION ACCESS:       2682  HIT:       2489  MISS:        193
cpu0_L2C PREFETCH  REQUESTED:          0  ISSUED:          0  USEFUL:          0  USELESS:          0
cpu0_L2C AVERAGE MISS LATENCY: 733.791 cycles
LLC TOTAL     ACCESS:    4523016  HIT:     928088  MISS:    3594928
LLC LOAD      ACCESS:    3059104  HIT:     642460  MISS:    2416644
LLC RFO       ACCESS:     112462  HIT:      98453  MISS:      14009
LLC PREFETCH  ACCESS:          0  HIT:          0  MISS:          0
LLC WRITEBACK ACCESS:    1351257  HIT:     187072  MISS:    1164185
LLC TRANSLATION ACCESS:        193  HIT:        103  MISS:         90
LLC PREFETCH  REQUESTED:          0  ISSUED:          0  USEFUL:          0  USELESS:          0
LLC AVERAGE MISS LATENCY: 628.905 cycles
Insertion Distribution: 
	LOAD 598252 0 242193 1800938 
	RFO 1706 0 5484 6821 
	PREF 0 0 0 0 
	WRITEBACK 0 0 0 1276560 
	 13 0 58 37 
Total Prefetch Downgrades: 0

DRAM Statistics
 CHANNEL 0
 RQ ROW_BUFFER_HIT:      47902  ROW_BUFFER_MISS:    2382818
 DBUS AVG_CONGESTED_CYCLE:    3.99574
 WQ ROW_BUFFER_HIT:      25228  ROW_BUFFER_MISS:    1229481  FULL:      47231


CPU 0 Branch Prediction Accuracy: 98.929% MPKI: 0.55515 Average ROB Occupancy at Mispredict: 265.143
Branch type MPKI
BRANCH_DIRECT_JUMP: 0.00045
BRANCH_INDIRECT: 1e-05
BRANCH_CONDITIONAL: 0.5534
BRANCH_DIRECT_CALL: 0.00065
BRANCH_INDIRECT_CALL: 0
BRANCH_RETURN: 0.00064

