
*** ChampSim Multicore Out-of-Order Simulator ***

Warmup Instructions: 10000000
Simulation Instructions: 100000000
Number of CPUs: 1
Off-chip DRAM Size: 4 GiB Channels: 1 Width: 64-bit Data Rate: 3200 MT/s

VirtualMemory physical capacity: 8588881920 num_ppages: 2096895
VirtualMemory page size: 4096 log2_page_size: 12

CPU 0 runs /datasets/cs240c-wi22-a00-public/data/Assignment2/GemsFDTD_712B.trace.xz
CPU 0 Bimodal branch predictor
Basic BTB sets: 1024 ways: 8 indirect buffer size: 4096 RAS size: 64
Initialize SRRIP state
Heartbeat CPU 0 instructions: 10000003 cycles: 4479620 heartbeat IPC: 2.23233 cumulative IPC: 2.23233 (Simulation time: 0 hr 1 min 4 sec) 

Warmup complete CPU 0 instructions: 10000003 cycles: 4479620 (Simulation time: 0 hr 1 min 4 sec) 

Heartbeat CPU 0 instructions: 20000000 cycles: 44294114 heartbeat IPC: 0.251165 cumulative IPC: 0.251165 (Simulation time: 0 hr 5 min 2 sec) 
Heartbeat CPU 0 instructions: 30000001 cycles: 84004755 heartbeat IPC: 0.251822 cumulative IPC: 0.251493 (Simulation time: 0 hr 8 min 59 sec) 
Heartbeat CPU 0 instructions: 40000004 cycles: 123902791 heartbeat IPC: 0.250639 cumulative IPC: 0.251208 (Simulation time: 0 hr 12 min 56 sec) 
Heartbeat CPU 0 instructions: 50000003 cycles: 163777417 heartbeat IPC: 0.250786 cumulative IPC: 0.251102 (Simulation time: 0 hr 16 min 53 sec) 
Heartbeat CPU 0 instructions: 60000003 cycles: 203483944 heartbeat IPC: 0.251848 cumulative IPC: 0.251251 (Simulation time: 0 hr 20 min 50 sec) 
Heartbeat CPU 0 instructions: 70000002 cycles: 243283475 heartbeat IPC: 0.251259 cumulative IPC: 0.251252 (Simulation time: 0 hr 24 min 45 sec) 
Heartbeat CPU 0 instructions: 80000000 cycles: 277805690 heartbeat IPC: 0.289669 cumulative IPC: 0.256104 (Simulation time: 0 hr 27 min 22 sec) 
Heartbeat CPU 0 instructions: 90000000 cycles: 312850180 heartbeat IPC: 0.285352 cumulative IPC: 0.259428 (Simulation time: 0 hr 29 min 57 sec) 
Heartbeat CPU 0 instructions: 100000001 cycles: 347619261 heartbeat IPC: 0.287612 cumulative IPC: 0.262284 (Simulation time: 0 hr 32 min 29 sec) 
Heartbeat CPU 0 instructions: 110000002 cycles: 382184860 heartbeat IPC: 0.289305 cumulative IPC: 0.264757 (Simulation time: 0 hr 35 min 7 sec) 
Finished CPU 0 instructions: 100000004 cycles: 377705241 cumulative IPC: 0.264757 (Simulation time: 0 hr 35 min 7 sec) 

ChampSim completed all CPUs

Region of Interest Statistics

CPU 0 cumulative IPC: 0.264757 instructions: 100000004 cycles: 377705241
cpu0_DTLB TOTAL     ACCESS:   29852410  HIT:   29649764  MISS:     202646
cpu0_DTLB LOAD      ACCESS:   23909733  HIT:   23707087  MISS:     202646
cpu0_DTLB RFO       ACCESS:    5942677  HIT:    5942677  MISS:          0
cpu0_DTLB PREFETCH  ACCESS:          0  HIT:          0  MISS:          0
cpu0_DTLB WRITEBACK ACCESS:          0  HIT:          0  MISS:          0
cpu0_DTLB TRANSLATION ACCESS:          0  HIT:          0  MISS:          0
cpu0_DTLB PREFETCH  REQUESTED:          0  ISSUED:          0  USEFUL:          0  USELESS:          0
cpu0_DTLB AVERAGE MISS LATENCY: 158.141 cycles
cpu0_ITLB TOTAL     ACCESS:    1686028  HIT:    1686022  MISS:          6
cpu0_ITLB LOAD      ACCESS:    1686028  HIT:    1686022  MISS:          6
cpu0_ITLB RFO       ACCESS:          0  HIT:          0  MISS:          0
cpu0_ITLB PREFETCH  ACCESS:          0  HIT:          0  MISS:          0
cpu0_ITLB WRITEBACK ACCESS:          0  HIT:          0  MISS:          0
cpu0_ITLB TRANSLATION ACCESS:          0  HIT:          0  MISS:          0
cpu0_ITLB PREFETCH  REQUESTED:          0  ISSUED:          0  USEFUL:          0  USELESS:          0
cpu0_ITLB AVERAGE MISS LATENCY: 309.333 cycles
cpu0_L1I TOTAL     ACCESS:    3165581  HIT:    3165486  MISS:         95
cpu0_L1I LOAD      ACCESS:    3165581  HIT:    3165486  MISS:         95
cpu0_L1I RFO       ACCESS:          0  HIT:          0  MISS:          0
cpu0_L1I PREFETCH  ACCESS:          0  HIT:          0  MISS:          0
cpu0_L1I WRITEBACK ACCESS:          0  HIT:          0  MISS:          0
cpu0_L1I TRANSLATION ACCESS:          0  HIT:          0  MISS:          0
cpu0_L1I PREFETCH  REQUESTED:          0  ISSUED:          0  USEFUL:          0  USELESS:          0
cpu0_L1I AVERAGE MISS LATENCY: 405.547 cycles
cpu0_STLB TOTAL     ACCESS:     202652  HIT:      49544  MISS:     153108
cpu0_STLB LOAD      ACCESS:     202652  HIT:      49544  MISS:     153108
cpu0_STLB RFO       ACCESS:          0  HIT:          0  MISS:          0
cpu0_STLB PREFETCH  ACCESS:          0  HIT:          0  MISS:          0
cpu0_STLB WRITEBACK ACCESS:          0  HIT:          0  MISS:          0
cpu0_STLB TRANSLATION ACCESS:          0  HIT:          0  MISS:          0
cpu0_STLB PREFETCH  REQUESTED:          0  ISSUED:          0  USEFUL:          0  USELESS:          0
cpu0_STLB AVERAGE MISS LATENCY: 197.342 cycles
cpu0_L1D TOTAL     ACCESS:   29713483  HIT:   26365423  MISS:    3348060
cpu0_L1D LOAD      ACCESS:   18481549  HIT:   15135693  MISS:    3345856
cpu0_L1D RFO       ACCESS:   11079382  HIT:   11079362  MISS:         20
cpu0_L1D PREFETCH  ACCESS:          0  HIT:          0  MISS:          0
cpu0_L1D WRITEBACK ACCESS:          0  HIT:          0  MISS:          0
cpu0_L1D TRANSLATION ACCESS:     152552  HIT:     150368  MISS:       2184
cpu0_L1D PREFETCH  REQUESTED:          0  ISSUED:          0  USEFUL:          0  USELESS:          0
cpu0_L1D AVERAGE MISS LATENCY: 687.354 cycles
cpu0_L2C TOTAL     ACCESS:    4725126  HIT:    1561828  MISS:    3163298
cpu0_L2C LOAD      ACCESS:    3345951  HIT:     182764  MISS:    3163187
cpu0_L2C RFO       ACCESS:         20  HIT:          0  MISS:         20
cpu0_L2C PREFETCH  ACCESS:          0  HIT:          0  MISS:          0
cpu0_L2C WRITEBACK ACCESS:    1376971  HIT:    1376967  MISS:          4
cpu0_L2C TRANSLATION ACCESS:       2184  HIT:       2097  MISS:         87
cpu0_L2C PREFETCH  REQUESTED:          0  ISSUED:          0  USEFUL:          0  USELESS:          0
cpu0_L2C AVERAGE MISS LATENCY: 715.847 cycles
LLC TOTAL     ACCESS:    4538806  HIT:     543122  MISS:    3995684
LLC LOAD      ACCESS:    3163187  HIT:     527431  MISS:    2635756
LLC RFO       ACCESS:         20  HIT:          0  MISS:         20
LLC PREFETCH  ACCESS:          0  HIT:          0  MISS:          0
LLC WRITEBACK ACCESS:    1375512  HIT:      15661  MISS:    1359851
LLC TRANSLATION ACCESS:         87  HIT:         30  MISS:         57
LLC PREFETCH  REQUESTED:          0  ISSUED:          0  USEFUL:          0  USELESS:          0
LLC AVERAGE MISS LATENCY: 550.095 cycles
Insertion Distribution: 
	LOAD 605034 0 124920 2222919 
	RFO 0 0 20 0 
	PREF 0 0 0 0 
	WRITEBACK 0 0 0 1486216 
	 15 0 25 33 
Total Prefetch Downgrades: 0

DRAM Statistics
 CHANNEL 0
 RQ ROW_BUFFER_HIT:       8008  ROW_BUFFER_MISS:    2627825
 DBUS AVG_CONGESTED_CYCLE:    3.99778
 WQ ROW_BUFFER_HIT:      22421  ROW_BUFFER_MISS:    1351107  FULL:          0


CPU 0 Branch Prediction Accuracy: 90.9863% MPKI: 1.62566 Average ROB Occupancy at Mispredict: 227.59
Branch type MPKI
BRANCH_DIRECT_JUMP: 5e-05
BRANCH_INDIRECT: 0
BRANCH_CONDITIONAL: 1.62559
BRANCH_DIRECT_CALL: 1e-05
BRANCH_INDIRECT_CALL: 0
BRANCH_RETURN: 1e-05

