
*** ChampSim Multicore Out-of-Order Simulator ***

Warmup Instructions: 10000000
Simulation Instructions: 100000000
Number of CPUs: 1
Off-chip DRAM Size: 4 GiB Channels: 1 Width: 64-bit Data Rate: 3200 MT/s

VirtualMemory physical capacity: 8588881920 num_ppages: 2096895
VirtualMemory page size: 4096 log2_page_size: 12

CPU 0 runs /datasets/cs240c-wi22-a00-public/data/Assignment2/cactusADM_734B.trace.xz
CPU 0 Bimodal branch predictor
Basic BTB sets: 1024 ways: 8 indirect buffer size: 4096 RAS size: 64
Initialize SRRIP state
Heartbeat CPU 0 instructions: 10000002 cycles: 3647078 heartbeat IPC: 2.74192 cumulative IPC: 2.74192 (Simulation time: 0 hr 0 min 51 sec) 

Warmup complete CPU 0 instructions: 10000002 cycles: 3647078 (Simulation time: 0 hr 0 min 51 sec) 

Heartbeat CPU 0 instructions: 20000004 cycles: 13652691 heartbeat IPC: 0.999439 cumulative IPC: 0.999439 (Simulation time: 0 hr 2 min 25 sec) 
Heartbeat CPU 0 instructions: 30000001 cycles: 23331051 heartbeat IPC: 1.03323 cumulative IPC: 1.01605 (Simulation time: 0 hr 3 min 53 sec) 
Heartbeat CPU 0 instructions: 40000004 cycles: 33187054 heartbeat IPC: 1.01461 cumulative IPC: 1.01557 (Simulation time: 0 hr 5 min 27 sec) 
Heartbeat CPU 0 instructions: 50000000 cycles: 42404712 heartbeat IPC: 1.08487 cumulative IPC: 1.03205 (Simulation time: 0 hr 6 min 51 sec) 
Heartbeat CPU 0 instructions: 60000002 cycles: 48544176 heartbeat IPC: 1.62881 cumulative IPC: 1.11366 (Simulation time: 0 hr 8 min 0 sec) 
Heartbeat CPU 0 instructions: 70000003 cycles: 57445640 heartbeat IPC: 1.12341 cumulative IPC: 1.11527 (Simulation time: 0 hr 9 min 24 sec) 
Heartbeat CPU 0 instructions: 80000002 cycles: 66518629 heartbeat IPC: 1.10217 cumulative IPC: 1.11338 (Simulation time: 0 hr 10 min 47 sec) 
Heartbeat CPU 0 instructions: 90000000 cycles: 75486460 heartbeat IPC: 1.1151 cumulative IPC: 1.1136 (Simulation time: 0 hr 12 min 9 sec) 
Heartbeat CPU 0 instructions: 100000004 cycles: 81524838 heartbeat IPC: 1.65607 cumulative IPC: 1.15566 (Simulation time: 0 hr 13 min 17 sec) 
Heartbeat CPU 0 instructions: 110000001 cycles: 90358809 heartbeat IPC: 1.13199 cumulative IPC: 1.15325 (Simulation time: 0 hr 14 min 40 sec) 
Finished CPU 0 instructions: 100000004 cycles: 86711732 cumulative IPC: 1.15325 (Simulation time: 0 hr 14 min 40 sec) 

ChampSim completed all CPUs

Region of Interest Statistics

CPU 0 cumulative IPC: 1.15325 instructions: 100000004 cycles: 86711732
cpu0_DTLB TOTAL     ACCESS:   21612871  HIT:   19766217  MISS:    1846654
cpu0_DTLB LOAD      ACCESS:   17748048  HIT:   16489404  MISS:    1258644
cpu0_DTLB RFO       ACCESS:    3864823  HIT:    3276813  MISS:     588010
cpu0_DTLB PREFETCH  ACCESS:          0  HIT:          0  MISS:          0
cpu0_DTLB WRITEBACK ACCESS:          0  HIT:          0  MISS:          0
cpu0_DTLB TRANSLATION ACCESS:          0  HIT:          0  MISS:          0
cpu0_DTLB PREFETCH  REQUESTED:          0  ISSUED:          0  USEFUL:          0  USELESS:          0
cpu0_DTLB AVERAGE MISS LATENCY: 19.6062 cycles
cpu0_ITLB TOTAL     ACCESS:    1530413  HIT:    1530413  MISS:          0
cpu0_ITLB LOAD      ACCESS:    1530413  HIT:    1530413  MISS:          0
cpu0_ITLB RFO       ACCESS:          0  HIT:          0  MISS:          0
cpu0_ITLB PREFETCH  ACCESS:          0  HIT:          0  MISS:          0
cpu0_ITLB WRITEBACK ACCESS:          0  HIT:          0  MISS:          0
cpu0_ITLB TRANSLATION ACCESS:          0  HIT:          0  MISS:          0
cpu0_ITLB PREFETCH  REQUESTED:          0  ISSUED:          0  USEFUL:          0  USELESS:          0
cpu0_ITLB AVERAGE MISS LATENCY: -nan cycles
cpu0_L1I TOTAL     ACCESS:    7873837  HIT:    7873834  MISS:          3
cpu0_L1I LOAD      ACCESS:    7873837  HIT:    7873834  MISS:          3
cpu0_L1I RFO       ACCESS:          0  HIT:          0  MISS:          0
cpu0_L1I PREFETCH  ACCESS:          0  HIT:          0  MISS:          0
cpu0_L1I WRITEBACK ACCESS:          0  HIT:          0  MISS:          0
cpu0_L1I TRANSLATION ACCESS:          0  HIT:          0  MISS:          0
cpu0_L1I PREFETCH  REQUESTED:          0  ISSUED:          0  USEFUL:          0  USELESS:          0
cpu0_L1I AVERAGE MISS LATENCY: 826.667 cycles
cpu0_STLB TOTAL     ACCESS:    1846654  HIT:     898031  MISS:     948623
cpu0_STLB LOAD      ACCESS:    1258644  HIT:     645574  MISS:     613070
cpu0_STLB RFO       ACCESS:     588010  HIT:     252457  MISS:     335553
cpu0_STLB PREFETCH  ACCESS:          0  HIT:          0  MISS:          0
cpu0_STLB WRITEBACK ACCESS:          0  HIT:          0  MISS:          0
cpu0_STLB TRANSLATION ACCESS:          0  HIT:          0  MISS:          0
cpu0_STLB PREFETCH  REQUESTED:          0  ISSUED:          0  USEFUL:          0  USELESS:          0
cpu0_STLB AVERAGE MISS LATENCY: 20.5196 cycles
cpu0_L1D TOTAL     ACCESS:   37556959  HIT:   36236711  MISS:    1320248
cpu0_L1D LOAD      ACCESS:   25688154  HIT:   24637435  MISS:    1050719
cpu0_L1D RFO       ACCESS:   10921163  HIT:   10657015  MISS:     264148
cpu0_L1D PREFETCH  ACCESS:          0  HIT:          0  MISS:          0
cpu0_L1D WRITEBACK ACCESS:          0  HIT:          0  MISS:          0
cpu0_L1D TRANSLATION ACCESS:     947642  HIT:     942261  MISS:       5381
cpu0_L1D PREFETCH  REQUESTED:          0  ISSUED:          0  USEFUL:          0  USELESS:          0
cpu0_L1D AVERAGE MISS LATENCY: 340.893 cycles
cpu0_L2C TOTAL     ACCESS:    1588210  HIT:     691796  MISS:     896414
cpu0_L2C LOAD      ACCESS:    1050722  HIT:     418912  MISS:     631810
cpu0_L2C RFO       ACCESS:     264148  HIT:          0  MISS:     264148
cpu0_L2C PREFETCH  ACCESS:          0  HIT:          0  MISS:          0
cpu0_L2C WRITEBACK ACCESS:     267959  HIT:     267758  MISS:        201
cpu0_L2C TRANSLATION ACCESS:       5381  HIT:       5126  MISS:        255
cpu0_L2C PREFETCH  REQUESTED:          0  ISSUED:          0  USEFUL:          0  USELESS:          0
cpu0_L2C AVERAGE MISS LATENCY: 485.856 cycles
LLC TOTAL     ACCESS:    1162874  HIT:     341721  MISS:     821153
LLC LOAD      ACCESS:     631810  HIT:     177353  MISS:     454457
LLC RFO       ACCESS:     264148  HIT:      55924  MISS:     208224
LLC PREFETCH  ACCESS:          0  HIT:          0  MISS:          0
LLC WRITEBACK ACCESS:     266661  HIT:     108435  MISS:     158226
LLC TRANSLATION ACCESS:        255  HIT:          9  MISS:        246
LLC PREFETCH  REQUESTED:          0  ISSUED:          0  USEFUL:          0  USELESS:          0
LLC AVERAGE MISS LATENCY: 507.465 cycles
Insertion Distribution: 
	LOAD 21533 0 78975 405137 
	RFO 29631 0 27729 163357 
	PREF 0 0 0 0 
	WRITEBACK 0 0 0 159642 
	 0 0 58 230 
Total Prefetch Downgrades: 0

DRAM Statistics
 CHANNEL 0
 RQ ROW_BUFFER_HIT:       6572  ROW_BUFFER_MISS:     656347
 DBUS AVG_CONGESTED_CYCLE:    3.97952
 WQ ROW_BUFFER_HIT:      15141  ROW_BUFFER_MISS:     199701  FULL:        410


CPU 0 Branch Prediction Accuracy: 97.7528% MPKI: 0.04677 Average ROB Occupancy at Mispredict: 284.066
Branch type MPKI
BRANCH_DIRECT_JUMP: 0
BRANCH_INDIRECT: 0
BRANCH_CONDITIONAL: 0.04677
BRANCH_DIRECT_CALL: 0
BRANCH_INDIRECT_CALL: 0
BRANCH_RETURN: 0

