
*** ChampSim Multicore Out-of-Order Simulator ***

Warmup Instructions: 10000000
Simulation Instructions: 100000000
Number of CPUs: 1
Off-chip DRAM Size: 4 GiB Channels: 1 Width: 64-bit Data Rate: 3200 MT/s

VirtualMemory physical capacity: 8588881920 num_ppages: 2096895
VirtualMemory page size: 4096 log2_page_size: 12

CPU 0 runs /datasets/cs240c-wi22-a00-public/data/Assignment2/bzip2_281B.trace.xz
CPU 0 Bimodal branch predictor
Basic BTB sets: 1024 ways: 8 indirect buffer size: 4096 RAS size: 64
Initialize SRRIP state
Heartbeat CPU 0 instructions: 10000004 cycles: 3227406 heartbeat IPC: 3.09846 cumulative IPC: 3.09846 (Simulation time: 0 hr 0 min 46 sec) 

Warmup complete CPU 0 instructions: 10000004 cycles: 3227406 (Simulation time: 0 hr 0 min 46 sec) 

Heartbeat CPU 0 instructions: 20000000 cycles: 13835794 heartbeat IPC: 0.94265 cumulative IPC: 0.94265 (Simulation time: 0 hr 1 min 39 sec) 
Heartbeat CPU 0 instructions: 30000001 cycles: 25152055 heartbeat IPC: 0.883684 cumulative IPC: 0.912215 (Simulation time: 0 hr 2 min 52 sec) 
Heartbeat CPU 0 instructions: 40000002 cycles: 29729290 heartbeat IPC: 2.18473 cumulative IPC: 1.13199 (Simulation time: 0 hr 3 min 28 sec) 
Heartbeat CPU 0 instructions: 50000003 cycles: 34667275 heartbeat IPC: 2.02512 cumulative IPC: 1.27227 (Simulation time: 0 hr 4 min 4 sec) 
Heartbeat CPU 0 instructions: 60000000 cycles: 39898853 heartbeat IPC: 1.91147 cumulative IPC: 1.36346 (Simulation time: 0 hr 4 min 48 sec) 
Heartbeat CPU 0 instructions: 70000004 cycles: 47421210 heartbeat IPC: 1.32937 cumulative IPC: 1.35766 (Simulation time: 0 hr 5 min 53 sec) 
Heartbeat CPU 0 instructions: 80000003 cycles: 55044599 heartbeat IPC: 1.31175 cumulative IPC: 1.3509 (Simulation time: 0 hr 6 min 47 sec) 
Heartbeat CPU 0 instructions: 90000003 cycles: 61432522 heartbeat IPC: 1.56545 cumulative IPC: 1.37445 (Simulation time: 0 hr 7 min 27 sec) 
Heartbeat CPU 0 instructions: 100000001 cycles: 68079894 heartbeat IPC: 1.50435 cumulative IPC: 1.38776 (Simulation time: 0 hr 8 min 9 sec) 
Heartbeat CPU 0 instructions: 110000000 cycles: 74818974 heartbeat IPC: 1.48388 cumulative IPC: 1.39681 (Simulation time: 0 hr 8 min 52 sec) 
Finished CPU 0 instructions: 100000000 cycles: 71591570 cumulative IPC: 1.39681 (Simulation time: 0 hr 8 min 52 sec) 

ChampSim completed all CPUs

Region of Interest Statistics

CPU 0 cumulative IPC: 1.39681 instructions: 100000000 cycles: 71591570
cpu0_DTLB TOTAL     ACCESS:   19643974  HIT:   18885430  MISS:     758544
cpu0_DTLB LOAD      ACCESS:   13789502  HIT:   13143847  MISS:     645655
cpu0_DTLB RFO       ACCESS:    5854472  HIT:    5741583  MISS:     112889
cpu0_DTLB PREFETCH  ACCESS:          0  HIT:          0  MISS:          0
cpu0_DTLB WRITEBACK ACCESS:          0  HIT:          0  MISS:          0
cpu0_DTLB TRANSLATION ACCESS:          0  HIT:          0  MISS:          0
cpu0_DTLB PREFETCH  REQUESTED:          0  ISSUED:          0  USEFUL:          0  USELESS:          0
cpu0_DTLB AVERAGE MISS LATENCY: 9.33622 cycles
cpu0_ITLB TOTAL     ACCESS:    6385235  HIT:    6385221  MISS:         14
cpu0_ITLB LOAD      ACCESS:    6385235  HIT:    6385221  MISS:         14
cpu0_ITLB RFO       ACCESS:          0  HIT:          0  MISS:          0
cpu0_ITLB PREFETCH  ACCESS:          0  HIT:          0  MISS:          0
cpu0_ITLB WRITEBACK ACCESS:          0  HIT:          0  MISS:          0
cpu0_ITLB TRANSLATION ACCESS:          0  HIT:          0  MISS:          0
cpu0_ITLB PREFETCH  REQUESTED:          0  ISSUED:          0  USEFUL:          0  USELESS:          0
cpu0_ITLB AVERAGE MISS LATENCY: 222.429 cycles
cpu0_L1I TOTAL     ACCESS:    2685739  HIT:    2685385  MISS:        354
cpu0_L1I LOAD      ACCESS:    2685739  HIT:    2685385  MISS:        354
cpu0_L1I RFO       ACCESS:          0  HIT:          0  MISS:          0
cpu0_L1I PREFETCH  ACCESS:          0  HIT:          0  MISS:          0
cpu0_L1I WRITEBACK ACCESS:          0  HIT:          0  MISS:          0
cpu0_L1I TRANSLATION ACCESS:          0  HIT:          0  MISS:          0
cpu0_L1I PREFETCH  REQUESTED:          0  ISSUED:          0  USEFUL:          0  USELESS:          0
cpu0_L1I AVERAGE MISS LATENCY: 194.316 cycles
cpu0_STLB TOTAL     ACCESS:     758558  HIT:     757476  MISS:       1082
cpu0_STLB LOAD      ACCESS:     645669  HIT:     644762  MISS:        907
cpu0_STLB RFO       ACCESS:     112889  HIT:     112714  MISS:        175
cpu0_STLB PREFETCH  ACCESS:          0  HIT:          0  MISS:          0
cpu0_STLB WRITEBACK ACCESS:          0  HIT:          0  MISS:          0
cpu0_STLB TRANSLATION ACCESS:          0  HIT:          0  MISS:          0
cpu0_STLB PREFETCH  REQUESTED:          0  ISSUED:          0  USEFUL:          0  USELESS:          0
cpu0_STLB AVERAGE MISS LATENCY: 204.805 cycles
cpu0_L1D TOTAL     ACCESS:   23559831  HIT:   21960284  MISS:    1599547
cpu0_L1D LOAD      ACCESS:   13796606  HIT:   12403626  MISS:    1392980
cpu0_L1D RFO       ACCESS:    9762157  HIT:    9556095  MISS:     206062
cpu0_L1D PREFETCH  ACCESS:          0  HIT:          0  MISS:          0
cpu0_L1D WRITEBACK ACCESS:          0  HIT:          0  MISS:          0
cpu0_L1D TRANSLATION ACCESS:       1068  HIT:        563  MISS:        505
cpu0_L1D PREFETCH  REQUESTED:          0  ISSUED:          0  USEFUL:          0  USELESS:          0
cpu0_L1D AVERAGE MISS LATENCY: 80.0732 cycles
cpu0_L2C TOTAL     ACCESS:    1814226  HIT:     912027  MISS:     902199
cpu0_L2C LOAD      ACCESS:    1393330  HIT:     648944  MISS:     744386
cpu0_L2C RFO       ACCESS:     206046  HIT:      48517  MISS:     157529
cpu0_L2C PREFETCH  ACCESS:          0  HIT:          0  MISS:          0
cpu0_L2C WRITEBACK ACCESS:     214345  HIT:     214091  MISS:        254
cpu0_L2C TRANSLATION ACCESS:        505  HIT:        475  MISS:         30
cpu0_L2C PREFETCH  REQUESTED:          0  ISSUED:          0  USEFUL:          0  USELESS:          0
cpu0_L2C AVERAGE MISS LATENCY: 122.399 cycles
LLC TOTAL     ACCESS:    1060532  HIT:     821256  MISS:     239276
LLC LOAD      ACCESS:     744385  HIT:     612897  MISS:     131488
LLC RFO       ACCESS:     157516  HIT:      83720  MISS:      73796
LLC PREFETCH  ACCESS:          0  HIT:          0  MISS:          0
LLC WRITEBACK ACCESS:     158601  HIT:     124615  MISS:      33986
LLC TRANSLATION ACCESS:         30  HIT:         24  MISS:          6
LLC PREFETCH  REQUESTED:          0  ISSUED:          0  USEFUL:          0  USELESS:          0
LLC AVERAGE MISS LATENCY: 382.337 cycles
Insertion Distribution: 
	LOAD 0 0 62504 90624 
	RFO 0 0 53259 38185 
	PREF 0 0 0 0 
	WRITEBACK 0 0 0 35354 
	 0 0 17 0 
Total Prefetch Downgrades: 0

DRAM Statistics
 CHANNEL 0
 RQ ROW_BUFFER_HIT:      63133  ROW_BUFFER_MISS:     141799
 DBUS AVG_CONGESTED_CYCLE:     3.9826
 WQ ROW_BUFFER_HIT:       5221  ROW_BUFFER_MISS:      78710  FULL:        253


CPU 0 Branch Prediction Accuracy: 91.2056% MPKI: 12.1715 Average ROB Occupancy at Mispredict: 71.3883
Branch type MPKI
BRANCH_DIRECT_JUMP: 0.00059
BRANCH_INDIRECT: 0
BRANCH_CONDITIONAL: 12.1706
BRANCH_DIRECT_CALL: 0.00014
BRANCH_INDIRECT_CALL: 0
BRANCH_RETURN: 0.00019

