
*** ChampSim Multicore Out-of-Order Simulator ***

Warmup Instructions: 10000000
Simulation Instructions: 100000000
Number of CPUs: 1
Off-chip DRAM Size: 4 GiB Channels: 1 Width: 64-bit Data Rate: 3200 MT/s

VirtualMemory physical capacity: 8588881920 num_ppages: 2096895
VirtualMemory page size: 4096 log2_page_size: 12

CPU 0 runs /datasets/cs240c-wi22-a00-public/data/Assignment2/cactusADM_1495B.trace.xz
CPU 0 Bimodal branch predictor
Basic BTB sets: 1024 ways: 8 indirect buffer size: 4096 RAS size: 64
Initialize SRRIP state
Heartbeat CPU 0 instructions: 10000001 cycles: 3702116 heartbeat IPC: 2.70116 cumulative IPC: 2.70116 (Simulation time: 0 hr 0 min 50 sec) 

Warmup complete CPU 0 instructions: 10000001 cycles: 3702116 (Simulation time: 0 hr 0 min 50 sec) 

Heartbeat CPU 0 instructions: 20000001 cycles: 11223979 heartbeat IPC: 1.32946 cumulative IPC: 1.32946 (Simulation time: 0 hr 2 min 10 sec) 
Heartbeat CPU 0 instructions: 30000003 cycles: 19734788 heartbeat IPC: 1.17498 cumulative IPC: 1.24745 (Simulation time: 0 hr 3 min 32 sec) 
Heartbeat CPU 0 instructions: 40000001 cycles: 28983729 heartbeat IPC: 1.0812 cumulative IPC: 1.18663 (Simulation time: 0 hr 4 min 57 sec) 
Heartbeat CPU 0 instructions: 50000000 cycles: 37598451 heartbeat IPC: 1.1608 cumulative IPC: 1.18007 (Simulation time: 0 hr 6 min 17 sec) 
Heartbeat CPU 0 instructions: 60000000 cycles: 44671594 heartbeat IPC: 1.4138 cumulative IPC: 1.22042 (Simulation time: 0 hr 7 min 32 sec) 
Heartbeat CPU 0 instructions: 70000000 cycles: 52852892 heartbeat IPC: 1.2223 cumulative IPC: 1.22073 (Simulation time: 0 hr 8 min 50 sec) 
Heartbeat CPU 0 instructions: 80000001 cycles: 61223292 heartbeat IPC: 1.19469 cumulative IPC: 1.21694 (Simulation time: 0 hr 10 min 10 sec) 
Heartbeat CPU 0 instructions: 90000002 cycles: 70106488 heartbeat IPC: 1.12572 cumulative IPC: 1.20474 (Simulation time: 0 hr 11 min 32 sec) 
Heartbeat CPU 0 instructions: 100000003 cycles: 78597915 heartbeat IPC: 1.17766 cumulative IPC: 1.20167 (Simulation time: 0 hr 12 min 54 sec) 
Heartbeat CPU 0 instructions: 110000004 cycles: 84571778 heartbeat IPC: 1.67396 cumulative IPC: 1.23656 (Simulation time: 0 hr 14 min 6 sec) 
Finished CPU 0 instructions: 100000003 cycles: 80869662 cumulative IPC: 1.23656 (Simulation time: 0 hr 14 min 6 sec) 

ChampSim completed all CPUs

Region of Interest Statistics

CPU 0 cumulative IPC: 1.23656 instructions: 100000003 cycles: 80869662
cpu0_DTLB TOTAL     ACCESS:   21502405  HIT:   19729617  MISS:    1772788
cpu0_DTLB LOAD      ACCESS:   17681212  HIT:   16471957  MISS:    1209255
cpu0_DTLB RFO       ACCESS:    3821193  HIT:    3257660  MISS:     563533
cpu0_DTLB PREFETCH  ACCESS:          0  HIT:          0  MISS:          0
cpu0_DTLB WRITEBACK ACCESS:          0  HIT:          0  MISS:          0
cpu0_DTLB TRANSLATION ACCESS:          0  HIT:          0  MISS:          0
cpu0_DTLB PREFETCH  REQUESTED:          0  ISSUED:          0  USEFUL:          0  USELESS:          0
cpu0_DTLB AVERAGE MISS LATENCY: 16.3793 cycles
cpu0_ITLB TOTAL     ACCESS:    1615107  HIT:    1615107  MISS:          0
cpu0_ITLB LOAD      ACCESS:    1615107  HIT:    1615107  MISS:          0
cpu0_ITLB RFO       ACCESS:          0  HIT:          0  MISS:          0
cpu0_ITLB PREFETCH  ACCESS:          0  HIT:          0  MISS:          0
cpu0_ITLB WRITEBACK ACCESS:          0  HIT:          0  MISS:          0
cpu0_ITLB TRANSLATION ACCESS:          0  HIT:          0  MISS:          0
cpu0_ITLB PREFETCH  REQUESTED:          0  ISSUED:          0  USEFUL:          0  USELESS:          0
cpu0_ITLB AVERAGE MISS LATENCY: -nan cycles
cpu0_L1I TOTAL     ACCESS:    8437769  HIT:    8437769  MISS:          0
cpu0_L1I LOAD      ACCESS:    8437769  HIT:    8437769  MISS:          0
cpu0_L1I RFO       ACCESS:          0  HIT:          0  MISS:          0
cpu0_L1I PREFETCH  ACCESS:          0  HIT:          0  MISS:          0
cpu0_L1I WRITEBACK ACCESS:          0  HIT:          0  MISS:          0
cpu0_L1I TRANSLATION ACCESS:          0  HIT:          0  MISS:          0
cpu0_L1I PREFETCH  REQUESTED:          0  ISSUED:          0  USEFUL:          0  USELESS:          0
cpu0_L1I AVERAGE MISS LATENCY: -nan cycles
cpu0_STLB TOTAL     ACCESS:    1772788  HIT:     905855  MISS:     866933
cpu0_STLB LOAD      ACCESS:    1209255  HIT:     648327  MISS:     560928
cpu0_STLB RFO       ACCESS:     563533  HIT:     257528  MISS:     306005
cpu0_STLB PREFETCH  ACCESS:          0  HIT:          0  MISS:          0
cpu0_STLB WRITEBACK ACCESS:          0  HIT:          0  MISS:          0
cpu0_STLB TRANSLATION ACCESS:          0  HIT:          0  MISS:          0
cpu0_STLB PREFETCH  REQUESTED:          0  ISSUED:          0  USEFUL:          0  USELESS:          0
cpu0_STLB AVERAGE MISS LATENCY: 14.9667 cycles
cpu0_L1D TOTAL     ACCESS:   37507197  HIT:   36218987  MISS:    1288210
cpu0_L1D LOAD      ACCESS:   25699826  HIT:   24663769  MISS:    1036057
cpu0_L1D RFO       ACCESS:   10941140  HIT:   10695908  MISS:     245232
cpu0_L1D PREFETCH  ACCESS:          0  HIT:          0  MISS:          0
cpu0_L1D WRITEBACK ACCESS:          0  HIT:          0  MISS:          0
cpu0_L1D TRANSLATION ACCESS:     866231  HIT:     859310  MISS:       6921
cpu0_L1D PREFETCH  REQUESTED:          0  ISSUED:          0  USEFUL:          0  USELESS:          0
cpu0_L1D AVERAGE MISS LATENCY: 272.747 cycles
cpu0_L2C TOTAL     ACCESS:    1536993  HIT:     676832  MISS:     860161
cpu0_L2C LOAD      ACCESS:    1036057  HIT:     421638  MISS:     614419
cpu0_L2C RFO       ACCESS:     245232  HIT:          0  MISS:     245232
cpu0_L2C PREFETCH  ACCESS:          0  HIT:          0  MISS:          0
cpu0_L2C WRITEBACK ACCESS:     248783  HIT:     248593  MISS:        190
cpu0_L2C TRANSLATION ACCESS:       6921  HIT:       6601  MISS:        320
cpu0_L2C PREFETCH  REQUESTED:          0  ISSUED:          0  USEFUL:          0  USELESS:          0
cpu0_L2C AVERAGE MISS LATENCY: 391.981 cycles
LLC TOTAL     ACCESS:    1105580  HIT:     328047  MISS:     777533
LLC LOAD      ACCESS:     614419  HIT:     162964  MISS:     451455
LLC RFO       ACCESS:     245232  HIT:      73892  MISS:     171340
LLC PREFETCH  ACCESS:          0  HIT:          0  MISS:          0
LLC WRITEBACK ACCESS:     245609  HIT:      91166  MISS:     154443
LLC TRANSLATION ACCESS:        320  HIT:         25  MISS:        295
LLC PREFETCH  REQUESTED:          0  ISSUED:          0  USEFUL:          0  USELESS:          0
LLC AVERAGE MISS LATENCY: 410.409 cycles
Insertion Distribution: 
	LOAD 62701 0 62920 392943 
	RFO 13648 0 19933 168082 
	PREF 0 0 0 0 
	WRITEBACK 0 0 0 164092 
	 0 0 64 281 
Total Prefetch Downgrades: 0

DRAM Statistics
 CHANNEL 0
 RQ ROW_BUFFER_HIT:       5905  ROW_BUFFER_MISS:     617156
 DBUS AVG_CONGESTED_CYCLE:    3.97484
 WQ ROW_BUFFER_HIT:      17191  ROW_BUFFER_MISS:     194933  FULL:          0


CPU 0 Branch Prediction Accuracy: 97.8411% MPKI: 0.04284 Average ROB Occupancy at Mispredict: 285.468
Branch type MPKI
BRANCH_DIRECT_JUMP: 0
BRANCH_INDIRECT: 0
BRANCH_CONDITIONAL: 0.04284
BRANCH_DIRECT_CALL: 0
BRANCH_INDIRECT_CALL: 0
BRANCH_RETURN: 0

