
*** ChampSim Multicore Out-of-Order Simulator ***

Warmup Instructions: 10000000
Simulation Instructions: 100000000
Number of CPUs: 1
Off-chip DRAM Size: 4 GiB Channels: 1 Width: 64-bit Data Rate: 3200 MT/s

VirtualMemory physical capacity: 8588881920 num_ppages: 2096895
VirtualMemory page size: 4096 log2_page_size: 12

CPU 0 runs /datasets/cs240c-wi22-a00-public/data/Assignment2/omnetpp_17B.trace.xz
CPU 0 Bimodal branch predictor
Basic BTB sets: 1024 ways: 8 indirect buffer size: 4096 RAS size: 64
Initialize SRRIP state
Heartbeat CPU 0 instructions: 10000002 cycles: 2500125 heartbeat IPC: 3.9998 cumulative IPC: 3.9998 (Simulation time: 0 hr 0 min 25 sec) 

Warmup complete CPU 0 instructions: 10000002 cycles: 2500125 (Simulation time: 0 hr 0 min 25 sec) 

Heartbeat CPU 0 instructions: 20000003 cycles: 8106874 heartbeat IPC: 1.78356 cumulative IPC: 1.78356 (Simulation time: 0 hr 0 min 51 sec) 
Heartbeat CPU 0 instructions: 30000000 cycles: 14779730 heartbeat IPC: 1.49861 cumulative IPC: 1.62872 (Simulation time: 0 hr 1 min 30 sec) 
Heartbeat CPU 0 instructions: 40000001 cycles: 21680915 heartbeat IPC: 1.44903 cumulative IPC: 1.56406 (Simulation time: 0 hr 2 min 11 sec) 
Heartbeat CPU 0 instructions: 50000001 cycles: 27607354 heartbeat IPC: 1.68735 cumulative IPC: 1.59317 (Simulation time: 0 hr 2 min 44 sec) 
Heartbeat CPU 0 instructions: 60000001 cycles: 33621044 heartbeat IPC: 1.66287 cumulative IPC: 1.60664 (Simulation time: 0 hr 3 min 17 sec) 
Heartbeat CPU 0 instructions: 70000000 cycles: 40474802 heartbeat IPC: 1.45905 cumulative IPC: 1.58 (Simulation time: 0 hr 3 min 57 sec) 
Heartbeat CPU 0 instructions: 80000002 cycles: 47312721 heartbeat IPC: 1.46243 cumulative IPC: 1.56206 (Simulation time: 0 hr 4 min 37 sec) 
Heartbeat CPU 0 instructions: 90000003 cycles: 54171248 heartbeat IPC: 1.45804 cumulative IPC: 1.54825 (Simulation time: 0 hr 5 min 18 sec) 
Heartbeat CPU 0 instructions: 100000002 cycles: 59518618 heartbeat IPC: 1.87008 cumulative IPC: 1.57844 (Simulation time: 0 hr 5 min 44 sec) 
Heartbeat CPU 0 instructions: 110000001 cycles: 66250374 heartbeat IPC: 1.4855 cumulative IPC: 1.56862 (Simulation time: 0 hr 6 min 25 sec) 
Finished CPU 0 instructions: 100000004 cycles: 63750256 cumulative IPC: 1.56862 (Simulation time: 0 hr 6 min 25 sec) 

ChampSim completed all CPUs

Region of Interest Statistics

CPU 0 cumulative IPC: 1.56862 instructions: 100000004 cycles: 63750256
cpu0_DTLB TOTAL     ACCESS:   10141022  HIT:    9076218  MISS:    1064804
cpu0_DTLB LOAD      ACCESS:    8203705  HIT:    7140781  MISS:    1062924
cpu0_DTLB RFO       ACCESS:    1937317  HIT:    1935437  MISS:       1880
cpu0_DTLB PREFETCH  ACCESS:          0  HIT:          0  MISS:          0
cpu0_DTLB WRITEBACK ACCESS:          0  HIT:          0  MISS:          0
cpu0_DTLB TRANSLATION ACCESS:          0  HIT:          0  MISS:          0
cpu0_DTLB PREFETCH  REQUESTED:          0  ISSUED:          0  USEFUL:          0  USELESS:          0
cpu0_DTLB AVERAGE MISS LATENCY: 17.9856 cycles
cpu0_ITLB TOTAL     ACCESS:    8332943  HIT:    8330886  MISS:       2057
cpu0_ITLB LOAD      ACCESS:    8332943  HIT:    8330886  MISS:       2057
cpu0_ITLB RFO       ACCESS:          0  HIT:          0  MISS:          0
cpu0_ITLB PREFETCH  ACCESS:          0  HIT:          0  MISS:          0
cpu0_ITLB WRITEBACK ACCESS:          0  HIT:          0  MISS:          0
cpu0_ITLB TRANSLATION ACCESS:          0  HIT:          0  MISS:          0
cpu0_ITLB PREFETCH  REQUESTED:          0  ISSUED:          0  USEFUL:          0  USELESS:          0
cpu0_ITLB AVERAGE MISS LATENCY: 15.6315 cycles
cpu0_L1I TOTAL     ACCESS:    1054832  HIT:    1050493  MISS:       4339
cpu0_L1I LOAD      ACCESS:    1054832  HIT:    1050493  MISS:       4339
cpu0_L1I RFO       ACCESS:          0  HIT:          0  MISS:          0
cpu0_L1I PREFETCH  ACCESS:          0  HIT:          0  MISS:          0
cpu0_L1I WRITEBACK ACCESS:          0  HIT:          0  MISS:          0
cpu0_L1I TRANSLATION ACCESS:          0  HIT:          0  MISS:          0
cpu0_L1I PREFETCH  REQUESTED:          0  ISSUED:          0  USEFUL:          0  USELESS:          0
cpu0_L1I AVERAGE MISS LATENCY: 65.5437 cycles
cpu0_STLB TOTAL     ACCESS:    1066861  HIT:      12746  MISS:    1054115
cpu0_STLB LOAD      ACCESS:    1064981  HIT:      11382  MISS:    1053599
cpu0_STLB RFO       ACCESS:       1880  HIT:       1364  MISS:        516
cpu0_STLB PREFETCH  ACCESS:          0  HIT:          0  MISS:          0
cpu0_STLB WRITEBACK ACCESS:          0  HIT:          0  MISS:          0
cpu0_STLB TRANSLATION ACCESS:          0  HIT:          0  MISS:          0
cpu0_STLB PREFETCH  REQUESTED:          0  ISSUED:          0  USEFUL:          0  USELESS:          0
cpu0_STLB AVERAGE MISS LATENCY: 8.62673 cycles
cpu0_L1D TOTAL     ACCESS:   10073816  HIT:    8319326  MISS:    1754490
cpu0_L1D LOAD      ACCESS:    6304557  HIT:    4564269  MISS:    1740288
cpu0_L1D RFO       ACCESS:    3337544  HIT:    3324485  MISS:      13059
cpu0_L1D PREFETCH  ACCESS:          0  HIT:          0  MISS:          0
cpu0_L1D WRITEBACK ACCESS:          0  HIT:          0  MISS:          0
cpu0_L1D TRANSLATION ACCESS:     431715  HIT:     430572  MISS:       1143
cpu0_L1D PREFETCH  REQUESTED:          0  ISSUED:          0  USEFUL:          0  USELESS:          0
cpu0_L1D AVERAGE MISS LATENCY: 88.0537 cycles
cpu0_L2C TOTAL     ACCESS:    1775639  HIT:      23353  MISS:    1752286
cpu0_L2C LOAD      ACCESS:    1744627  HIT:       5922  MISS:    1738705
cpu0_L2C RFO       ACCESS:      13059  HIT:        137  MISS:      12922
cpu0_L2C PREFETCH  ACCESS:          0  HIT:          0  MISS:          0
cpu0_L2C WRITEBACK ACCESS:      16810  HIT:      16810  MISS:          0
cpu0_L2C TRANSLATION ACCESS:       1143  HIT:        484  MISS:        659
cpu0_L2C PREFETCH  REQUESTED:          0  ISSUED:          0  USEFUL:          0  USELESS:          0
cpu0_L2C AVERAGE MISS LATENCY: 76.5723 cycles
LLC TOTAL     ACCESS:    1768992  HIT:    1493355  MISS:     275637
LLC LOAD      ACCESS:    1738705  HIT:    1478569  MISS:     260136
LLC RFO       ACCESS:      12922  HIT:       2314  MISS:      10608
LLC PREFETCH  ACCESS:          0  HIT:          0  MISS:          0
LLC WRITEBACK ACCESS:      16706  HIT:      11953  MISS:       4753
LLC TRANSLATION ACCESS:        659  HIT:        519  MISS:        140
LLC PREFETCH  REQUESTED:          0  ISSUED:          0  USEFUL:          0  USELESS:          0
LLC AVERAGE MISS LATENCY: 353.245 cycles
Insertion Distribution: 
	LOAD 11795 0 40371 281227 
	RFO 0 0 1443 10248 
	PREF 0 0 0 0 
	WRITEBACK 0 0 0 4836 
	 3 0 108 66 
Total Prefetch Downgrades: 0

DRAM Statistics
 CHANNEL 0
 RQ ROW_BUFFER_HIT:       8475  ROW_BUFFER_MISS:     262324
 DBUS AVG_CONGESTED_CYCLE:    3.96844
 WQ ROW_BUFFER_HIT:       3064  ROW_BUFFER_MISS:       8871  FULL:          0


CPU 0 Branch Prediction Accuracy: 97.6159% MPKI: 7.87238 Average ROB Occupancy at Mispredict: 63.307
Branch type MPKI
BRANCH_DIRECT_JUMP: 0.00032
BRANCH_INDIRECT: 0.08474
BRANCH_CONDITIONAL: 7.75802
BRANCH_DIRECT_CALL: 0.00068
BRANCH_INDIRECT_CALL: 0.00292
BRANCH_RETURN: 0.0257

