
*** ChampSim Multicore Out-of-Order Simulator ***

Warmup Instructions: 10000000
Simulation Instructions: 100000000
Number of CPUs: 1
Off-chip DRAM Size: 4 GiB Channels: 1 Width: 64-bit Data Rate: 3200 MT/s

VirtualMemory physical capacity: 8588881920 num_ppages: 2096895
VirtualMemory page size: 4096 log2_page_size: 12

CPU 0 runs /datasets/cs240c-wi22-a00-public/data/Assignment2/omnetpp_4B.trace.xz
CPU 0 Bimodal branch predictor
Basic BTB sets: 1024 ways: 8 indirect buffer size: 4096 RAS size: 64
Initialize SRRIP state
Heartbeat CPU 0 instructions: 10000002 cycles: 2526532 heartbeat IPC: 3.958 cumulative IPC: 3.958 (Simulation time: 0 hr 0 min 23 sec) 

Warmup complete CPU 0 instructions: 10000002 cycles: 2526532 (Simulation time: 0 hr 0 min 23 sec) 

Heartbeat CPU 0 instructions: 20000000 cycles: 9801402 heartbeat IPC: 1.37459 cumulative IPC: 1.37459 (Simulation time: 0 hr 0 min 55 sec) 
Heartbeat CPU 0 instructions: 30000001 cycles: 17317487 heartbeat IPC: 1.33048 cumulative IPC: 1.35218 (Simulation time: 0 hr 1 min 31 sec) 
Heartbeat CPU 0 instructions: 40000002 cycles: 24685518 heartbeat IPC: 1.35721 cumulative IPC: 1.35385 (Simulation time: 0 hr 2 min 7 sec) 
Heartbeat CPU 0 instructions: 50000000 cycles: 32505417 heartbeat IPC: 1.27879 cumulative IPC: 1.33427 (Simulation time: 0 hr 2 min 50 sec) 
Heartbeat CPU 0 instructions: 60000000 cycles: 40557722 heartbeat IPC: 1.24188 cumulative IPC: 1.31471 (Simulation time: 0 hr 3 min 32 sec) 
Heartbeat CPU 0 instructions: 70000000 cycles: 48232370 heartbeat IPC: 1.30299 cumulative IPC: 1.31274 (Simulation time: 0 hr 4 min 12 sec) 
Heartbeat CPU 0 instructions: 80000000 cycles: 56203081 heartbeat IPC: 1.25459 cumulative IPC: 1.30411 (Simulation time: 0 hr 4 min 54 sec) 
Heartbeat CPU 0 instructions: 90000000 cycles: 64723179 heartbeat IPC: 1.1737 cumulative IPC: 1.28624 (Simulation time: 0 hr 5 min 37 sec) 
Heartbeat CPU 0 instructions: 100000001 cycles: 72108712 heartbeat IPC: 1.354 cumulative IPC: 1.29343 (Simulation time: 0 hr 6 min 15 sec) 
Heartbeat CPU 0 instructions: 110000002 cycles: 80075189 heartbeat IPC: 1.25526 cumulative IPC: 1.28951 (Simulation time: 0 hr 6 min 57 sec) 
Finished CPU 0 instructions: 100000000 cycles: 77548657 cumulative IPC: 1.28951 (Simulation time: 0 hr 6 min 57 sec) 

ChampSim completed all CPUs

Region of Interest Statistics

CPU 0 cumulative IPC: 1.28951 instructions: 100000000 cycles: 77548657
cpu0_DTLB TOTAL     ACCESS:   11767575  HIT:   10335678  MISS:    1431897
cpu0_DTLB LOAD      ACCESS:    9181514  HIT:    7751176  MISS:    1430338
cpu0_DTLB RFO       ACCESS:    2586061  HIT:    2584502  MISS:       1559
cpu0_DTLB PREFETCH  ACCESS:          0  HIT:          0  MISS:          0
cpu0_DTLB WRITEBACK ACCESS:          0  HIT:          0  MISS:          0
cpu0_DTLB TRANSLATION ACCESS:          0  HIT:          0  MISS:          0
cpu0_DTLB PREFETCH  REQUESTED:          0  ISSUED:          0  USEFUL:          0  USELESS:          0
cpu0_DTLB AVERAGE MISS LATENCY: 17.8321 cycles
cpu0_ITLB TOTAL     ACCESS:    7987495  HIT:    7963328  MISS:      24167
cpu0_ITLB LOAD      ACCESS:    7987495  HIT:    7963328  MISS:      24167
cpu0_ITLB RFO       ACCESS:          0  HIT:          0  MISS:          0
cpu0_ITLB PREFETCH  ACCESS:          0  HIT:          0  MISS:          0
cpu0_ITLB WRITEBACK ACCESS:          0  HIT:          0  MISS:          0
cpu0_ITLB TRANSLATION ACCESS:          0  HIT:          0  MISS:          0
cpu0_ITLB PREFETCH  REQUESTED:          0  ISSUED:          0  USEFUL:          0  USELESS:          0
cpu0_ITLB AVERAGE MISS LATENCY: 10.8505 cycles
cpu0_L1I TOTAL     ACCESS:    1939534  HIT:    1876686  MISS:      62848
cpu0_L1I LOAD      ACCESS:    1939534  HIT:    1876686  MISS:      62848
cpu0_L1I RFO       ACCESS:          0  HIT:          0  MISS:          0
cpu0_L1I PREFETCH  ACCESS:          0  HIT:          0  MISS:          0
cpu0_L1I WRITEBACK ACCESS:          0  HIT:          0  MISS:          0
cpu0_L1I TRANSLATION ACCESS:          0  HIT:          0  MISS:          0
cpu0_L1I PREFETCH  REQUESTED:          0  ISSUED:          0  USEFUL:          0  USELESS:          0
cpu0_L1I AVERAGE MISS LATENCY: 54.136 cycles
cpu0_STLB TOTAL     ACCESS:    1456064  HIT:      23515  MISS:    1432549
cpu0_STLB LOAD      ACCESS:    1454505  HIT:      22773  MISS:    1431732
cpu0_STLB RFO       ACCESS:       1559  HIT:        742  MISS:        817
cpu0_STLB PREFETCH  ACCESS:          0  HIT:          0  MISS:          0
cpu0_STLB WRITEBACK ACCESS:          0  HIT:          0  MISS:          0
cpu0_STLB TRANSLATION ACCESS:          0  HIT:          0  MISS:          0
cpu0_STLB PREFETCH  REQUESTED:          0  ISSUED:          0  USEFUL:          0  USELESS:          0
cpu0_STLB AVERAGE MISS LATENCY: 8.44337 cycles
cpu0_L1D TOTAL     ACCESS:   12785036  HIT:   10295137  MISS:    2489899
cpu0_L1D LOAD      ACCESS:    7430951  HIT:    4979757  MISS:    2451194
cpu0_L1D RFO       ACCESS:    4654983  HIT:    4617267  MISS:      37716
cpu0_L1D PREFETCH  ACCESS:          0  HIT:          0  MISS:          0
cpu0_L1D WRITEBACK ACCESS:          0  HIT:          0  MISS:          0
cpu0_L1D TRANSLATION ACCESS:     699102  HIT:     698113  MISS:        989
cpu0_L1D PREFETCH  REQUESTED:          0  ISSUED:          0  USEFUL:          0  USELESS:          0
cpu0_L1D AVERAGE MISS LATENCY: 101.712 cycles
cpu0_L2C TOTAL     ACCESS:    2633692  HIT:     114320  MISS:    2519372
cpu0_L2C LOAD      ACCESS:    2514041  HIT:      32381  MISS:    2481660
cpu0_L2C RFO       ACCESS:      37716  HIT:        795  MISS:      36921
cpu0_L2C PREFETCH  ACCESS:          0  HIT:          0  MISS:          0
cpu0_L2C WRITEBACK ACCESS:      80946  HIT:      80946  MISS:          0
cpu0_L2C TRANSLATION ACCESS:        989  HIT:        198  MISS:        791
cpu0_L2C PREFETCH  REQUESTED:          0  ISSUED:          0  USEFUL:          0  USELESS:          0
cpu0_L2C AVERAGE MISS LATENCY: 90.1898 cycles
LLC TOTAL     ACCESS:    2598911  HIT:    2061609  MISS:     537302
LLC LOAD      ACCESS:    2481658  HIT:    1967456  MISS:     514202
LLC RFO       ACCESS:      36921  HIT:      19500  MISS:      17421
LLC PREFETCH  ACCESS:          0  HIT:          0  MISS:          0
LLC WRITEBACK ACCESS:      79541  HIT:      74082  MISS:       5459
LLC TRANSLATION ACCESS:        791  HIT:        571  MISS:        220
LLC PREFETCH  REQUESTED:          0  ISSUED:          0  USEFUL:          0  USELESS:          0
LLC AVERAGE MISS LATENCY: 324.371 cycles
Insertion Distribution: 
	LOAD 510945 0 90260 2486 
	RFO 2201 0 10872 6380 
	PREF 0 0 0 0 
	WRITEBACK 0 0 0 6400 
	 120 0 145 0 
Total Prefetch Downgrades: 0

DRAM Statistics
 CHANNEL 0
 RQ ROW_BUFFER_HIT:      26860  ROW_BUFFER_MISS:     501812
 DBUS AVG_CONGESTED_CYCLE:     3.9564
 WQ ROW_BUFFER_HIT:       4423  ROW_BUFFER_MISS:      44253  FULL:          0


CPU 0 Branch Prediction Accuracy: 97.4293% MPKI: 8.26178 Average ROB Occupancy at Mispredict: 57.0663
Branch type MPKI
BRANCH_DIRECT_JUMP: 0.00037
BRANCH_INDIRECT: 0.12485
BRANCH_CONDITIONAL: 8.10493
BRANCH_DIRECT_CALL: 0.00326
BRANCH_INDIRECT_CALL: 0.00558
BRANCH_RETURN: 0.02279

