
*** ChampSim Multicore Out-of-Order Simulator ***

Warmup Instructions: 10000000
Simulation Instructions: 100000000
Number of CPUs: 1
Off-chip DRAM Size: 4 GiB Channels: 1 Width: 64-bit Data Rate: 3200 MT/s

VirtualMemory physical capacity: 8588881920 num_ppages: 2096895
VirtualMemory page size: 4096 log2_page_size: 12

CPU 0 runs /datasets/cs240c-wi22-a00-public/data/Assignment2/bzip2_183B.trace.xz
CPU 0 Bimodal branch predictor
Basic BTB sets: 1024 ways: 8 indirect buffer size: 4096 RAS size: 64
Initialize SRRIP state
Heartbeat CPU 0 instructions: 10000000 cycles: 3166440 heartbeat IPC: 3.15812 cumulative IPC: 3.15812 (Simulation time: 0 hr 0 min 36 sec) 

Warmup complete CPU 0 instructions: 10000005 cycles: 3166442 (Simulation time: 0 hr 0 min 36 sec) 

Heartbeat CPU 0 instructions: 20000000 cycles: 10303717 heartbeat IPC: 1.40109 cumulative IPC: 1.40109 (Simulation time: 0 hr 1 min 10 sec) 
Heartbeat CPU 0 instructions: 30000001 cycles: 17829019 heartbeat IPC: 1.32885 cumulative IPC: 1.36402 (Simulation time: 0 hr 1 min 43 sec) 
Heartbeat CPU 0 instructions: 40000004 cycles: 25218540 heartbeat IPC: 1.35327 cumulative IPC: 1.36041 (Simulation time: 0 hr 2 min 18 sec) 
Heartbeat CPU 0 instructions: 50000001 cycles: 33045952 heartbeat IPC: 1.27756 cumulative IPC: 1.33871 (Simulation time: 0 hr 2 min 48 sec) 
Heartbeat CPU 0 instructions: 60000004 cycles: 40690987 heartbeat IPC: 1.30804 cumulative IPC: 1.33246 (Simulation time: 0 hr 3 min 20 sec) 
Heartbeat CPU 0 instructions: 70000002 cycles: 49381537 heartbeat IPC: 1.15067 cumulative IPC: 1.29828 (Simulation time: 0 hr 3 min 52 sec) 
Heartbeat CPU 0 instructions: 80000000 cycles: 57387167 heartbeat IPC: 1.24912 cumulative IPC: 1.29102 (Simulation time: 0 hr 4 min 25 sec) 
Heartbeat CPU 0 instructions: 90000002 cycles: 65813922 heartbeat IPC: 1.1867 cumulative IPC: 1.27699 (Simulation time: 0 hr 4 min 59 sec) 
Heartbeat CPU 0 instructions: 100000002 cycles: 75099431 heartbeat IPC: 1.07695 cumulative IPC: 1.25116 (Simulation time: 0 hr 5 min 35 sec) 
Heartbeat CPU 0 instructions: 110000003 cycles: 84346616 heartbeat IPC: 1.08141 cumulative IPC: 1.23183 (Simulation time: 0 hr 6 min 7 sec) 
Finished CPU 0 instructions: 100000003 cycles: 81180175 cumulative IPC: 1.23183 (Simulation time: 0 hr 6 min 7 sec) 

ChampSim completed all CPUs

Region of Interest Statistics

CPU 0 cumulative IPC: 1.23183 instructions: 100000003 cycles: 81180175
cpu0_DTLB TOTAL     ACCESS:   21898115  HIT:   21441954  MISS:     456161
cpu0_DTLB LOAD      ACCESS:   17507037  HIT:   17192115  MISS:     314922
cpu0_DTLB RFO       ACCESS:    4391078  HIT:    4249839  MISS:     141239
cpu0_DTLB PREFETCH  ACCESS:          0  HIT:          0  MISS:          0
cpu0_DTLB WRITEBACK ACCESS:          0  HIT:          0  MISS:          0
cpu0_DTLB TRANSLATION ACCESS:          0  HIT:          0  MISS:          0
cpu0_DTLB PREFETCH  REQUESTED:          0  ISSUED:          0  USEFUL:          0  USELESS:          0
cpu0_DTLB AVERAGE MISS LATENCY: 9.24894 cycles
cpu0_ITLB TOTAL     ACCESS:   10074223  HIT:   10074223  MISS:          0
cpu0_ITLB LOAD      ACCESS:   10074223  HIT:   10074223  MISS:          0
cpu0_ITLB RFO       ACCESS:          0  HIT:          0  MISS:          0
cpu0_ITLB PREFETCH  ACCESS:          0  HIT:          0  MISS:          0
cpu0_ITLB WRITEBACK ACCESS:          0  HIT:          0  MISS:          0
cpu0_ITLB TRANSLATION ACCESS:          0  HIT:          0  MISS:          0
cpu0_ITLB PREFETCH  REQUESTED:          0  ISSUED:          0  USEFUL:          0  USELESS:          0
cpu0_ITLB AVERAGE MISS LATENCY: -nan cycles
cpu0_L1I TOTAL     ACCESS:      41507  HIT:      41506  MISS:          1
cpu0_L1I LOAD      ACCESS:      41507  HIT:      41506  MISS:          1
cpu0_L1I RFO       ACCESS:          0  HIT:          0  MISS:          0
cpu0_L1I PREFETCH  ACCESS:          0  HIT:          0  MISS:          0
cpu0_L1I WRITEBACK ACCESS:          0  HIT:          0  MISS:          0
cpu0_L1I TRANSLATION ACCESS:          0  HIT:          0  MISS:          0
cpu0_L1I PREFETCH  REQUESTED:          0  ISSUED:          0  USEFUL:          0  USELESS:          0
cpu0_L1I AVERAGE MISS LATENCY: 194 cycles
cpu0_STLB TOTAL     ACCESS:     456161  HIT:     455768  MISS:        393
cpu0_STLB LOAD      ACCESS:     314922  HIT:     314781  MISS:        141
cpu0_STLB RFO       ACCESS:     141239  HIT:     140987  MISS:        252
cpu0_STLB PREFETCH  ACCESS:          0  HIT:          0  MISS:          0
cpu0_STLB WRITEBACK ACCESS:          0  HIT:          0  MISS:          0
cpu0_STLB TRANSLATION ACCESS:          0  HIT:          0  MISS:          0
cpu0_STLB PREFETCH  REQUESTED:          0  ISSUED:          0  USEFUL:          0  USELESS:          0
cpu0_STLB AVERAGE MISS LATENCY: 204.483 cycles
cpu0_L1D TOTAL     ACCESS:   20752333  HIT:   19343054  MISS:    1409279
cpu0_L1D LOAD      ACCESS:   14095024  HIT:   13039672  MISS:    1055352
cpu0_L1D RFO       ACCESS:    6656936  HIT:    6303205  MISS:     353731
cpu0_L1D PREFETCH  ACCESS:          0  HIT:          0  MISS:          0
cpu0_L1D WRITEBACK ACCESS:          0  HIT:          0  MISS:          0
cpu0_L1D TRANSLATION ACCESS:        373  HIT:        177  MISS:        196
cpu0_L1D PREFETCH  REQUESTED:          0  ISSUED:          0  USEFUL:          0  USELESS:          0
cpu0_L1D AVERAGE MISS LATENCY: 80.3226 cycles
cpu0_L2C TOTAL     ACCESS:    1811510  HIT:    1198267  MISS:     613243
cpu0_L2C LOAD      ACCESS:    1055335  HIT:     692826  MISS:     362509
cpu0_L2C RFO       ACCESS:     353692  HIT:     103061  MISS:     250631
cpu0_L2C PREFETCH  ACCESS:          0  HIT:          0  MISS:          0
cpu0_L2C WRITEBACK ACCESS:     402287  HIT:     402215  MISS:         72
cpu0_L2C TRANSLATION ACCESS:        196  HIT:        165  MISS:         31
cpu0_L2C PREFETCH  REQUESTED:          0  ISSUED:          0  USEFUL:          0  USELESS:          0
cpu0_L2C AVERAGE MISS LATENCY: 159.172 cycles
LLC TOTAL     ACCESS:     901940  HIT:     755134  MISS:     146806
LLC LOAD      ACCESS:     362507  HIT:     294375  MISS:      68132
LLC RFO       ACCESS:     250605  HIT:     183990  MISS:      66615
LLC PREFETCH  ACCESS:          0  HIT:          0  MISS:          0
LLC WRITEBACK ACCESS:     288797  HIT:     276740  MISS:      12057
LLC TRANSLATION ACCESS:         31  HIT:         29  MISS:          2
LLC PREFETCH  REQUESTED:          0  ISSUED:          0  USEFUL:          0  USELESS:          0
LLC AVERAGE MISS LATENCY: 577.169 cycles
Insertion Distribution: 
	LOAD 49748 0 27331 8898 
	RFO 38875 0 30312 10400 
	PREF 0 0 0 0 
	WRITEBACK 0 0 0 12206 
	 0 0 12 1 
Total Prefetch Downgrades: 0

DRAM Statistics
 CHANNEL 0
 RQ ROW_BUFFER_HIT:       8721  ROW_BUFFER_MISS:     125279
 DBUS AVG_CONGESTED_CYCLE:    3.97269
 WQ ROW_BUFFER_HIT:       6942  ROW_BUFFER_MISS:      84621  FULL:          0


CPU 0 Branch Prediction Accuracy: 89.4501% MPKI: 18.6246 Average ROB Occupancy at Mispredict: 32.6091
Branch type MPKI
BRANCH_DIRECT_JUMP: 3e-05
BRANCH_INDIRECT: 0
BRANCH_CONDITIONAL: 18.6246
BRANCH_DIRECT_CALL: 0
BRANCH_INDIRECT_CALL: 0
BRANCH_RETURN: 0

