
*** ChampSim Multicore Out-of-Order Simulator ***

Warmup Instructions: 10000000
Simulation Instructions: 100000000
Number of CPUs: 1
Off-chip DRAM Size: 4 GiB Channels: 1 Width: 64-bit Data Rate: 3200 MT/s

VirtualMemory physical capacity: 8588881920 num_ppages: 2096895
VirtualMemory page size: 4096 log2_page_size: 12

CPU 0 runs /datasets/cs240c-wi22-a00-public/data/Assignment2/soplex_217B.trace.xz
CPU 0 Bimodal branch predictor
Basic BTB sets: 1024 ways: 8 indirect buffer size: 4096 RAS size: 64
Initialize SRRIP state
Heartbeat CPU 0 instructions: 10000000 cycles: 2844434 heartbeat IPC: 3.51564 cumulative IPC: 3.51564 (Simulation time: 0 hr 0 min 35 sec) 

Warmup complete CPU 0 instructions: 10000004 cycles: 2844435 (Simulation time: 0 hr 0 min 35 sec) 

Heartbeat CPU 0 instructions: 20000000 cycles: 33853031 heartbeat IPC: 0.322491 cumulative IPC: 0.322491 (Simulation time: 0 hr 2 min 21 sec) 
Heartbeat CPU 0 instructions: 30000004 cycles: 64128193 heartbeat IPC: 0.330304 cumulative IPC: 0.326351 (Simulation time: 0 hr 4 min 12 sec) 
Heartbeat CPU 0 instructions: 40000003 cycles: 94509992 heartbeat IPC: 0.329144 cumulative IPC: 0.327277 (Simulation time: 0 hr 5 min 54 sec) 
Heartbeat CPU 0 instructions: 50000000 cycles: 123549610 heartbeat IPC: 0.344357 cumulative IPC: 0.331386 (Simulation time: 0 hr 7 min 38 sec) 
Heartbeat CPU 0 instructions: 60000002 cycles: 153503453 heartbeat IPC: 0.333847 cumulative IPC: 0.331875 (Simulation time: 0 hr 9 min 21 sec) 
Heartbeat CPU 0 instructions: 70000000 cycles: 197736134 heartbeat IPC: 0.226077 cumulative IPC: 0.307863 (Simulation time: 0 hr 11 min 51 sec) 
Heartbeat CPU 0 instructions: 80000000 cycles: 230167507 heartbeat IPC: 0.308343 cumulative IPC: 0.307932 (Simulation time: 0 hr 13 min 28 sec) 
Heartbeat CPU 0 instructions: 90000002 cycles: 259843974 heartbeat IPC: 0.336967 cumulative IPC: 0.311285 (Simulation time: 0 hr 15 min 19 sec) 
Heartbeat CPU 0 instructions: 100000003 cycles: 290706658 heartbeat IPC: 0.324016 cumulative IPC: 0.31265 (Simulation time: 0 hr 17 min 13 sec) 
Heartbeat CPU 0 instructions: 110000000 cycles: 319468680 heartbeat IPC: 0.347681 cumulative IPC: 0.315832 (Simulation time: 0 hr 18 min 41 sec) 
Finished CPU 0 instructions: 100000000 cycles: 316624247 cumulative IPC: 0.315832 (Simulation time: 0 hr 18 min 41 sec) 

ChampSim completed all CPUs

Region of Interest Statistics

CPU 0 cumulative IPC: 0.315832 instructions: 100000000 cycles: 316624247
cpu0_DTLB TOTAL     ACCESS:   21880115  HIT:   21014842  MISS:     865273
cpu0_DTLB LOAD      ACCESS:   16717766  HIT:   16033450  MISS:     684316
cpu0_DTLB RFO       ACCESS:    5162349  HIT:    4981392  MISS:     180957
cpu0_DTLB PREFETCH  ACCESS:          0  HIT:          0  MISS:          0
cpu0_DTLB WRITEBACK ACCESS:          0  HIT:          0  MISS:          0
cpu0_DTLB TRANSLATION ACCESS:          0  HIT:          0  MISS:          0
cpu0_DTLB PREFETCH  REQUESTED:          0  ISSUED:          0  USEFUL:          0  USELESS:          0
cpu0_DTLB AVERAGE MISS LATENCY: 14.6084 cycles
cpu0_ITLB TOTAL     ACCESS:    8463923  HIT:    8463905  MISS:         18
cpu0_ITLB LOAD      ACCESS:    8463923  HIT:    8463905  MISS:         18
cpu0_ITLB RFO       ACCESS:          0  HIT:          0  MISS:          0
cpu0_ITLB PREFETCH  ACCESS:          0  HIT:          0  MISS:          0
cpu0_ITLB WRITEBACK ACCESS:          0  HIT:          0  MISS:          0
cpu0_ITLB TRANSLATION ACCESS:          0  HIT:          0  MISS:          0
cpu0_ITLB PREFETCH  REQUESTED:          0  ISSUED:          0  USEFUL:          0  USELESS:          0
cpu0_ITLB AVERAGE MISS LATENCY: 202.222 cycles
cpu0_L1I TOTAL     ACCESS:     355508  HIT:     354855  MISS:        653
cpu0_L1I LOAD      ACCESS:     355508  HIT:     354855  MISS:        653
cpu0_L1I RFO       ACCESS:          0  HIT:          0  MISS:          0
cpu0_L1I PREFETCH  ACCESS:          0  HIT:          0  MISS:          0
cpu0_L1I WRITEBACK ACCESS:          0  HIT:          0  MISS:          0
cpu0_L1I TRANSLATION ACCESS:          0  HIT:          0  MISS:          0
cpu0_L1I PREFETCH  REQUESTED:          0  ISSUED:          0  USEFUL:          0  USELESS:          0
cpu0_L1I AVERAGE MISS LATENCY: 319.331 cycles
cpu0_STLB TOTAL     ACCESS:     865291  HIT:     741777  MISS:     123514
cpu0_STLB LOAD      ACCESS:     684334  HIT:     570173  MISS:     114161
cpu0_STLB RFO       ACCESS:     180957  HIT:     171604  MISS:       9353
cpu0_STLB PREFETCH  ACCESS:          0  HIT:          0  MISS:          0
cpu0_STLB WRITEBACK ACCESS:          0  HIT:          0  MISS:          0
cpu0_STLB TRANSLATION ACCESS:          0  HIT:          0  MISS:          0
cpu0_STLB PREFETCH  REQUESTED:          0  ISSUED:          0  USEFUL:          0  USELESS:          0
cpu0_STLB AVERAGE MISS LATENCY: 38.1484 cycles
cpu0_L1D TOTAL     ACCESS:   18166934  HIT:   12342914  MISS:    5824020
cpu0_L1D LOAD      ACCESS:   12233658  HIT:    7239302  MISS:    4994356
cpu0_L1D RFO       ACCESS:    5813314  HIT:    4988672  MISS:     824642
cpu0_L1D PREFETCH  ACCESS:          0  HIT:          0  MISS:          0
cpu0_L1D WRITEBACK ACCESS:          0  HIT:          0  MISS:          0
cpu0_L1D TRANSLATION ACCESS:     119962  HIT:     114940  MISS:       5022
cpu0_L1D PREFETCH  REQUESTED:          0  ISSUED:          0  USEFUL:          0  USELESS:          0
cpu0_L1D AVERAGE MISS LATENCY: 196.177 cycles
cpu0_L2C TOTAL     ACCESS:    8411854  HIT:    3954568  MISS:    4457286
cpu0_L2C LOAD      ACCESS:    4994442  HIT:    1232113  MISS:    3762329
cpu0_L2C RFO       ACCESS:     824580  HIT:     130476  MISS:     694104
cpu0_L2C PREFETCH  ACCESS:          0  HIT:          0  MISS:          0
cpu0_L2C WRITEBACK ACCESS:    2587810  HIT:    2587707  MISS:        103
cpu0_L2C TRANSLATION ACCESS:       5022  HIT:       4272  MISS:        750
cpu0_L2C PREFETCH  REQUESTED:          0  ISSUED:          0  USEFUL:          0  USELESS:          0
cpu0_L2C AVERAGE MISS LATENCY: 241.764 cycles
LLC TOTAL     ACCESS:    6308119  HIT:    3184771  MISS:    3123348
LLC LOAD      ACCESS:    3762310  HIT:    1498066  MISS:    2264244
LLC RFO       ACCESS:     694101  HIT:     259559  MISS:     434542
LLC PREFETCH  ACCESS:          0  HIT:          0  MISS:          0
LLC WRITEBACK ACCESS:    1850958  HIT:    1426816  MISS:     424142
LLC TRANSLATION ACCESS:        750  HIT:        330  MISS:        420
LLC PREFETCH  REQUESTED:          0  ISSUED:          0  USEFUL:          0  USELESS:          0
LLC AVERAGE MISS LATENCY: 314.683 cycles
Insertion Distribution: 
	LOAD 343042 0 331305 1863935 
	RFO 118188 0 106472 257502 
	PREF 0 0 0 0 
	WRITEBACK 0 0 0 491899 
	 3 0 185 279 
Total Prefetch Downgrades: 0

DRAM Statistics
 CHANNEL 0
 RQ ROW_BUFFER_HIT:     308303  ROW_BUFFER_MISS:    2388230
 DBUS AVG_CONGESTED_CYCLE:    3.94606
 WQ ROW_BUFFER_HIT:      48422  ROW_BUFFER_MISS:     884414  FULL:     307083


CPU 0 Branch Prediction Accuracy: 93.2069% MPKI: 14.28 Average ROB Occupancy at Mispredict: 49.9018
Branch type MPKI
BRANCH_DIRECT_JUMP: 0.00099
BRANCH_INDIRECT: 0.00023
BRANCH_CONDITIONAL: 14.2767
BRANCH_DIRECT_CALL: 0.00062
BRANCH_INDIRECT_CALL: 0.00054
BRANCH_RETURN: 0.00093

