
*** ChampSim Multicore Out-of-Order Simulator ***

Warmup Instructions: 10000000
Simulation Instructions: 100000000
Number of CPUs: 1
Off-chip DRAM Size: 4 GiB Channels: 1 Width: 64-bit Data Rate: 3200 MT/s

VirtualMemory physical capacity: 8588881920 num_ppages: 2096895
VirtualMemory page size: 4096 log2_page_size: 12

CPU 0 runs /datasets/cs240c-wi22-a00-public/data/Assignment2/libquantum_1735B.trace.xz
CPU 0 Bimodal branch predictor
Basic BTB sets: 1024 ways: 8 indirect buffer size: 4096 RAS size: 64
Initialize SRRIP state
Heartbeat CPU 0 instructions: 10000002 cycles: 2500058 heartbeat IPC: 3.99991 cumulative IPC: 3.99991 (Simulation time: 0 hr 0 min 22 sec) 

Warmup complete CPU 0 instructions: 10000002 cycles: 2500058 (Simulation time: 0 hr 0 min 22 sec) 

Heartbeat CPU 0 instructions: 20000003 cycles: 36696351 heartbeat IPC: 0.292429 cumulative IPC: 0.292429 (Simulation time: 0 hr 1 min 23 sec) 
Heartbeat CPU 0 instructions: 30000001 cycles: 70481343 heartbeat IPC: 0.295989 cumulative IPC: 0.294199 (Simulation time: 0 hr 2 min 24 sec) 
Heartbeat CPU 0 instructions: 40000003 cycles: 109670362 heartbeat IPC: 0.255174 cumulative IPC: 0.279928 (Simulation time: 0 hr 3 min 33 sec) 
Heartbeat CPU 0 instructions: 50000002 cycles: 147802203 heartbeat IPC: 0.262248 cumulative IPC: 0.275288 (Simulation time: 0 hr 4 min 35 sec) 
Heartbeat CPU 0 instructions: 60000001 cycles: 152816759 heartbeat IPC: 1.99419 cumulative IPC: 0.332631 (Simulation time: 0 hr 5 min 14 sec) 
Heartbeat CPU 0 instructions: 70000002 cycles: 157691128 heartbeat IPC: 2.05155 cumulative IPC: 0.38662 (Simulation time: 0 hr 5 min 53 sec) 
Heartbeat CPU 0 instructions: 80000000 cycles: 196173856 heartbeat IPC: 0.259857 cumulative IPC: 0.361432 (Simulation time: 0 hr 7 min 0 sec) 
Heartbeat CPU 0 instructions: 90000000 cycles: 235672865 heartbeat IPC: 0.253171 cumulative IPC: 0.343093 (Simulation time: 0 hr 8 min 5 sec) 
Heartbeat CPU 0 instructions: 100000000 cycles: 293865887 heartbeat IPC: 0.171842 cumulative IPC: 0.30889 (Simulation time: 0 hr 9 min 25 sec) 
Heartbeat CPU 0 instructions: 110000003 cycles: 334259601 heartbeat IPC: 0.247563 cumulative IPC: 0.301423 (Simulation time: 0 hr 10 min 33 sec) 
Finished CPU 0 instructions: 100000001 cycles: 331759543 cumulative IPC: 0.301423 (Simulation time: 0 hr 10 min 33 sec) 

ChampSim completed all CPUs

Region of Interest Statistics

CPU 0 cumulative IPC: 0.301423 instructions: 100000001 cycles: 331759543
cpu0_DTLB TOTAL     ACCESS:    9914039  HIT:    9870436  MISS:      43603
cpu0_DTLB LOAD      ACCESS:    8280952  HIT:    8237354  MISS:      43598
cpu0_DTLB RFO       ACCESS:    1633087  HIT:    1633082  MISS:          5
cpu0_DTLB PREFETCH  ACCESS:          0  HIT:          0  MISS:          0
cpu0_DTLB WRITEBACK ACCESS:          0  HIT:          0  MISS:          0
cpu0_DTLB TRANSLATION ACCESS:          0  HIT:          0  MISS:          0
cpu0_DTLB PREFETCH  REQUESTED:          0  ISSUED:          0  USEFUL:          0  USELESS:          0
cpu0_DTLB AVERAGE MISS LATENCY: 35.7515 cycles
cpu0_ITLB TOTAL     ACCESS:    4579306  HIT:    4579306  MISS:          0
cpu0_ITLB LOAD      ACCESS:    4579306  HIT:    4579306  MISS:          0
cpu0_ITLB RFO       ACCESS:          0  HIT:          0  MISS:          0
cpu0_ITLB PREFETCH  ACCESS:          0  HIT:          0  MISS:          0
cpu0_ITLB WRITEBACK ACCESS:          0  HIT:          0  MISS:          0
cpu0_ITLB TRANSLATION ACCESS:          0  HIT:          0  MISS:          0
cpu0_ITLB PREFETCH  REQUESTED:          0  ISSUED:          0  USEFUL:          0  USELESS:          0
cpu0_ITLB AVERAGE MISS LATENCY: -nan cycles
cpu0_L1I TOTAL     ACCESS:         20  HIT:         11  MISS:          9
cpu0_L1I LOAD      ACCESS:         20  HIT:         11  MISS:          9
cpu0_L1I RFO       ACCESS:          0  HIT:          0  MISS:          0
cpu0_L1I PREFETCH  ACCESS:          0  HIT:          0  MISS:          0
cpu0_L1I WRITEBACK ACCESS:          0  HIT:          0  MISS:          0
cpu0_L1I TRANSLATION ACCESS:          0  HIT:          0  MISS:          0
cpu0_L1I PREFETCH  REQUESTED:          0  ISSUED:          0  USEFUL:          0  USELESS:          0
cpu0_L1I AVERAGE MISS LATENCY: 184.111 cycles
cpu0_STLB TOTAL     ACCESS:      43603  HIT:          0  MISS:      43603
cpu0_STLB LOAD      ACCESS:      43598  HIT:          0  MISS:      43598
cpu0_STLB RFO       ACCESS:          5  HIT:          0  MISS:          5
cpu0_STLB PREFETCH  ACCESS:          0  HIT:          0  MISS:          0
cpu0_STLB WRITEBACK ACCESS:          0  HIT:          0  MISS:          0
cpu0_STLB TRANSLATION ACCESS:          0  HIT:          0  MISS:          0
cpu0_STLB PREFETCH  REQUESTED:          0  ISSUED:          0  USEFUL:          0  USELESS:          0
cpu0_STLB AVERAGE MISS LATENCY: 26.7515 cycles
cpu0_L1D TOTAL     ACCESS:    6546043  HIT:    3756610  MISS:    2789433
cpu0_L1D LOAD      ACCESS:    4613935  HIT:    1824552  MISS:    2789383
cpu0_L1D RFO       ACCESS:    1888505  HIT:    1888485  MISS:         20
cpu0_L1D PREFETCH  ACCESS:          0  HIT:          0  MISS:          0
cpu0_L1D WRITEBACK ACCESS:          0  HIT:          0  MISS:          0
cpu0_L1D TRANSLATION ACCESS:      43603  HIT:      43573  MISS:         30
cpu0_L1D PREFETCH  REQUESTED:          0  ISSUED:          0  USEFUL:          0  USELESS:          0
cpu0_L1D AVERAGE MISS LATENCY: 163.431 cycles
cpu0_L2C TOTAL     ACCESS:    3804021  HIT:    1014579  MISS:    2789442
cpu0_L2C LOAD      ACCESS:    2789392  HIT:          0  MISS:    2789392
cpu0_L2C RFO       ACCESS:         20  HIT:          0  MISS:         20
cpu0_L2C PREFETCH  ACCESS:          0  HIT:          0  MISS:          0
cpu0_L2C WRITEBACK ACCESS:    1014579  HIT:    1014579  MISS:          0
cpu0_L2C TRANSLATION ACCESS:         30  HIT:          0  MISS:         30
cpu0_L2C PREFETCH  REQUESTED:          0  ISSUED:          0  USEFUL:          0  USELESS:          0
cpu0_L2C AVERAGE MISS LATENCY: 152.427 cycles
LLC TOTAL     ACCESS:    3798498  HIT:     147754  MISS:    3650744
LLC LOAD      ACCESS:    2789392  HIT:     138115  MISS:    2651277
LLC RFO       ACCESS:         20  HIT:          8  MISS:         12
LLC PREFETCH  ACCESS:          0  HIT:          0  MISS:          0
LLC WRITEBACK ACCESS:    1009056  HIT:       9621  MISS:     999435
LLC TRANSLATION ACCESS:         30  HIT:         10  MISS:         20
LLC PREFETCH  REQUESTED:          0  ISSUED:          0  USEFUL:          0  USELESS:          0
LLC AVERAGE MISS LATENCY: 100.42 cycles
Insertion Distribution: 
	LOAD 23284 0 67513 2824553 
	RFO 0 0 16 0 
	PREF 0 0 0 0 
	WRITEBACK 0 0 0 1123013 
	 0 0 19 14 
Total Prefetch Downgrades: 0

DRAM Statistics
 CHANNEL 0
 RQ ROW_BUFFER_HIT:    1339327  ROW_BUFFER_MISS:    1311981
 DBUS AVG_CONGESTED_CYCLE:    3.74303
 WQ ROW_BUFFER_HIT:     325608  ROW_BUFFER_MISS:     676107  FULL:        616


CPU 0 Branch Prediction Accuracy: 89.0086% MPKI: 24.5272 Average ROB Occupancy at Mispredict: 3.91516
Branch type MPKI
BRANCH_DIRECT_JUMP: 2e-05
BRANCH_INDIRECT: 0
BRANCH_CONDITIONAL: 24.527
BRANCH_DIRECT_CALL: 8e-05
BRANCH_INDIRECT_CALL: 0
BRANCH_RETURN: 8e-05

