
*** ChampSim Multicore Out-of-Order Simulator ***

Warmup Instructions: 10000000
Simulation Instructions: 100000000
Number of CPUs: 1
Off-chip DRAM Size: 4 GiB Channels: 1 Width: 64-bit Data Rate: 3200 MT/s

VirtualMemory physical capacity: 8588881920 num_ppages: 2096895
VirtualMemory page size: 4096 log2_page_size: 12

CPU 0 runs /datasets/cs240c-wi22-a00-public/data/Assignment2/bzip2_259B.trace.xz
CPU 0 Bimodal branch predictor
Basic BTB sets: 1024 ways: 8 indirect buffer size: 4096 RAS size: 64
Initialize SRRIP state
Heartbeat CPU 0 instructions: 10000002 cycles: 2535454 heartbeat IPC: 3.94407 cumulative IPC: 3.94407 (Simulation time: 0 hr 0 min 31 sec) 

Warmup complete CPU 0 instructions: 10000002 cycles: 2535454 (Simulation time: 0 hr 0 min 31 sec) 

Heartbeat CPU 0 instructions: 20000004 cycles: 8968158 heartbeat IPC: 1.55456 cumulative IPC: 1.55456 (Simulation time: 0 hr 1 min 36 sec) 
Heartbeat CPU 0 instructions: 30000002 cycles: 14383971 heartbeat IPC: 1.84644 cumulative IPC: 1.68797 (Simulation time: 0 hr 2 min 32 sec) 
Heartbeat CPU 0 instructions: 40000003 cycles: 21125042 heartbeat IPC: 1.48344 cumulative IPC: 1.61381 (Simulation time: 0 hr 3 min 17 sec) 
Heartbeat CPU 0 instructions: 50000003 cycles: 29330476 heartbeat IPC: 1.2187 cumulative IPC: 1.49281 (Simulation time: 0 hr 3 min 49 sec) 
Heartbeat CPU 0 instructions: 60000001 cycles: 37201628 heartbeat IPC: 1.27046 cumulative IPC: 1.44233 (Simulation time: 0 hr 4 min 21 sec) 
Heartbeat CPU 0 instructions: 70000003 cycles: 43158461 heartbeat IPC: 1.67874 cumulative IPC: 1.477 (Simulation time: 0 hr 5 min 18 sec) 
Heartbeat CPU 0 instructions: 80000002 cycles: 49554168 heartbeat IPC: 1.56355 cumulative IPC: 1.48877 (Simulation time: 0 hr 6 min 19 sec) 
Heartbeat CPU 0 instructions: 90000001 cycles: 55743842 heartbeat IPC: 1.61559 cumulative IPC: 1.50352 (Simulation time: 0 hr 7 min 8 sec) 
Heartbeat CPU 0 instructions: 100000000 cycles: 64143774 heartbeat IPC: 1.19049 cumulative IPC: 1.46084 (Simulation time: 0 hr 7 min 41 sec) 
Heartbeat CPU 0 instructions: 110000000 cycles: 72118355 heartbeat IPC: 1.25398 cumulative IPC: 1.43713 (Simulation time: 0 hr 8 min 13 sec) 
Finished CPU 0 instructions: 100000003 cycles: 69582906 cumulative IPC: 1.43713 (Simulation time: 0 hr 8 min 13 sec) 

ChampSim completed all CPUs

Region of Interest Statistics

CPU 0 cumulative IPC: 1.43713 instructions: 100000003 cycles: 69582906
cpu0_DTLB TOTAL     ACCESS:   18629284  HIT:   17967755  MISS:     661529
cpu0_DTLB LOAD      ACCESS:    9572964  HIT:    8915348  MISS:     657616
cpu0_DTLB RFO       ACCESS:    9056320  HIT:    9052407  MISS:       3913
cpu0_DTLB PREFETCH  ACCESS:          0  HIT:          0  MISS:          0
cpu0_DTLB WRITEBACK ACCESS:          0  HIT:          0  MISS:          0
cpu0_DTLB TRANSLATION ACCESS:          0  HIT:          0  MISS:          0
cpu0_DTLB PREFETCH  REQUESTED:          0  ISSUED:          0  USEFUL:          0  USELESS:          0
cpu0_DTLB AVERAGE MISS LATENCY: 9.26264 cycles
cpu0_ITLB TOTAL     ACCESS:    6760853  HIT:    6760850  MISS:          3
cpu0_ITLB LOAD      ACCESS:    6760853  HIT:    6760850  MISS:          3
cpu0_ITLB RFO       ACCESS:          0  HIT:          0  MISS:          0
cpu0_ITLB PREFETCH  ACCESS:          0  HIT:          0  MISS:          0
cpu0_ITLB WRITEBACK ACCESS:          0  HIT:          0  MISS:          0
cpu0_ITLB TRANSLATION ACCESS:          0  HIT:          0  MISS:          0
cpu0_ITLB PREFETCH  REQUESTED:          0  ISSUED:          0  USEFUL:          0  USELESS:          0
cpu0_ITLB AVERAGE MISS LATENCY: 304 cycles
cpu0_L1I TOTAL     ACCESS:      58658  HIT:      58519  MISS:        139
cpu0_L1I LOAD      ACCESS:      58658  HIT:      58519  MISS:        139
cpu0_L1I RFO       ACCESS:          0  HIT:          0  MISS:          0
cpu0_L1I PREFETCH  ACCESS:          0  HIT:          0  MISS:          0
cpu0_L1I WRITEBACK ACCESS:          0  HIT:          0  MISS:          0
cpu0_L1I TRANSLATION ACCESS:          0  HIT:          0  MISS:          0
cpu0_L1I PREFETCH  REQUESTED:          0  ISSUED:          0  USEFUL:          0  USELESS:          0
cpu0_L1I AVERAGE MISS LATENCY: 212.547 cycles
cpu0_STLB TOTAL     ACCESS:     661532  HIT:     660712  MISS:        820
cpu0_STLB LOAD      ACCESS:     657619  HIT:     657345  MISS:        274
cpu0_STLB RFO       ACCESS:       3913  HIT:       3367  MISS:        546
cpu0_STLB PREFETCH  ACCESS:          0  HIT:          0  MISS:          0
cpu0_STLB WRITEBACK ACCESS:          0  HIT:          0  MISS:          0
cpu0_STLB TRANSLATION ACCESS:          0  HIT:          0  MISS:          0
cpu0_STLB PREFETCH  REQUESTED:          0  ISSUED:          0  USEFUL:          0  USELESS:          0
cpu0_STLB AVERAGE MISS LATENCY: 212.896 cycles
cpu0_L1D TOTAL     ACCESS:   20318889  HIT:   19313302  MISS:    1005587
cpu0_L1D LOAD      ACCESS:   10363588  HIT:    9477197  MISS:     886391
cpu0_L1D RFO       ACCESS:    9954483  HIT:    9835606  MISS:     118877
cpu0_L1D PREFETCH  ACCESS:          0  HIT:          0  MISS:          0
cpu0_L1D WRITEBACK ACCESS:          0  HIT:          0  MISS:          0
cpu0_L1D TRANSLATION ACCESS:        818  HIT:        499  MISS:        319
cpu0_L1D PREFETCH  REQUESTED:          0  ISSUED:          0  USEFUL:          0  USELESS:          0
cpu0_L1D AVERAGE MISS LATENCY: 80.1857 cycles
cpu0_L2C TOTAL     ACCESS:    1222721  HIT:     525104  MISS:     697617
cpu0_L2C LOAD      ACCESS:     886527  HIT:     288937  MISS:     597590
cpu0_L2C RFO       ACCESS:     118877  HIT:      18904  MISS:      99973
cpu0_L2C PREFETCH  ACCESS:          0  HIT:          0  MISS:          0
cpu0_L2C WRITEBACK ACCESS:     216998  HIT:     216962  MISS:         36
cpu0_L2C TRANSLATION ACCESS:        319  HIT:        301  MISS:         18
cpu0_L2C PREFETCH  REQUESTED:          0  ISSUED:          0  USEFUL:          0  USELESS:          0
cpu0_L2C AVERAGE MISS LATENCY: 99.7635 cycles
LLC TOTAL     ACCESS:     886581  HIT:     600832  MISS:     285749
LLC LOAD      ACCESS:     597590  HIT:     417032  MISS:     180558
LLC RFO       ACCESS:      99973  HIT:      41037  MISS:      58936
LLC PREFETCH  ACCESS:          0  HIT:          0  MISS:          0
LLC WRITEBACK ACCESS:     189000  HIT:     142759  MISS:      46241
LLC TRANSLATION ACCESS:         18  HIT:          4  MISS:         14
LLC PREFETCH  REQUESTED:          0  ISSUED:          0  USEFUL:          0  USELESS:          0
LLC AVERAGE MISS LATENCY: 192.289 cycles
Insertion Distribution: 
	LOAD 30058 0 0 0 0 0 55128 95954 
	RFO 8907 0 0 0 0 0 26022 39965 
	PREF 0 0 0 0 0 0 0 0 
	WRITEBACK 0 0 0 0 0 0 0 46241 
	 1 0 0 0 0 0 13 11 
Total Prefetch Downgrades: 0

DRAM Statistics
 CHANNEL 0
 RQ ROW_BUFFER_HIT:      36221  ROW_BUFFER_MISS:     203096
 DBUS AVG_CONGESTED_CYCLE:    3.94903
 WQ ROW_BUFFER_HIT:      14837  ROW_BUFFER_MISS:      97002  FULL:        354


CPU 0 Branch Prediction Accuracy: 93.3658% MPKI: 11.2167 Average ROB Occupancy at Mispredict: 31.758
Branch type MPKI
BRANCH_DIRECT_JUMP: 0.0006
BRANCH_INDIRECT: 0.01713
BRANCH_CONDITIONAL: 11.1989
BRANCH_DIRECT_CALL: 5e-05
BRANCH_INDIRECT_CALL: 0
BRANCH_RETURN: 6e-05

