
*** ChampSim Multicore Out-of-Order Simulator ***

Warmup Instructions: 10000000
Simulation Instructions: 100000000
Number of CPUs: 1
Off-chip DRAM Size: 4 GiB Channels: 1 Width: 64-bit Data Rate: 3200 MT/s

VirtualMemory physical capacity: 8588881920 num_ppages: 2096895
VirtualMemory page size: 4096 log2_page_size: 12

CPU 0 runs /datasets/cs240c-wi22-a00-public/data/Assignment2/bzip2_259B.trace.xz
CPU 0 Bimodal branch predictor
Basic BTB sets: 1024 ways: 8 indirect buffer size: 4096 RAS size: 64
Initialize SRRIP state
Heartbeat CPU 0 instructions: 10000002 cycles: 2535454 heartbeat IPC: 3.94407 cumulative IPC: 3.94407 (Simulation time: 0 hr 0 min 25 sec) 

Warmup complete CPU 0 instructions: 10000002 cycles: 2535454 (Simulation time: 0 hr 0 min 25 sec) 

Heartbeat CPU 0 instructions: 20000003 cycles: 9127352 heartbeat IPC: 1.51701 cumulative IPC: 1.51701 (Simulation time: 0 hr 1 min 21 sec) 
Heartbeat CPU 0 instructions: 30000002 cycles: 14586640 heartbeat IPC: 1.83174 cumulative IPC: 1.65959 (Simulation time: 0 hr 2 min 11 sec) 
Heartbeat CPU 0 instructions: 40000003 cycles: 21157769 heartbeat IPC: 1.52181 cumulative IPC: 1.61097 (Simulation time: 0 hr 2 min 50 sec) 
Heartbeat CPU 0 instructions: 50000003 cycles: 29364976 heartbeat IPC: 1.21844 cumulative IPC: 1.4909 (Simulation time: 0 hr 3 min 16 sec) 
Heartbeat CPU 0 instructions: 60000001 cycles: 37269435 heartbeat IPC: 1.26511 cumulative IPC: 1.43951 (Simulation time: 0 hr 3 min 42 sec) 
Heartbeat CPU 0 instructions: 70000004 cycles: 43815348 heartbeat IPC: 1.52767 cumulative IPC: 1.45349 (Simulation time: 0 hr 4 min 34 sec) 
Heartbeat CPU 0 instructions: 80000002 cycles: 50439054 heartbeat IPC: 1.50973 cumulative IPC: 1.46127 (Simulation time: 0 hr 5 min 25 sec) 
Heartbeat CPU 0 instructions: 90000001 cycles: 56670270 heartbeat IPC: 1.60482 cumulative IPC: 1.47779 (Simulation time: 0 hr 6 min 6 sec) 
Heartbeat CPU 0 instructions: 100000000 cycles: 65067922 heartbeat IPC: 1.19081 cumulative IPC: 1.43925 (Simulation time: 0 hr 6 min 32 sec) 
Heartbeat CPU 0 instructions: 110000000 cycles: 73043483 heartbeat IPC: 1.25383 cumulative IPC: 1.41828 (Simulation time: 0 hr 6 min 58 sec) 
Finished CPU 0 instructions: 100000003 cycles: 70508034 cumulative IPC: 1.41828 (Simulation time: 0 hr 6 min 58 sec) 

ChampSim completed all CPUs

Region of Interest Statistics

CPU 0 cumulative IPC: 1.41828 instructions: 100000003 cycles: 70508034
cpu0_DTLB TOTAL     ACCESS:   18623906  HIT:   17962406  MISS:     661500
cpu0_DTLB LOAD      ACCESS:    9568702  HIT:    8911132  MISS:     657570
cpu0_DTLB RFO       ACCESS:    9055204  HIT:    9051274  MISS:       3930
cpu0_DTLB PREFETCH  ACCESS:          0  HIT:          0  MISS:          0
cpu0_DTLB WRITEBACK ACCESS:          0  HIT:          0  MISS:          0
cpu0_DTLB TRANSLATION ACCESS:          0  HIT:          0  MISS:          0
cpu0_DTLB PREFETCH  REQUESTED:          0  ISSUED:          0  USEFUL:          0  USELESS:          0
cpu0_DTLB AVERAGE MISS LATENCY: 9.26293 cycles
cpu0_ITLB TOTAL     ACCESS:    6757486  HIT:    6757483  MISS:          3
cpu0_ITLB LOAD      ACCESS:    6757486  HIT:    6757483  MISS:          3
cpu0_ITLB RFO       ACCESS:          0  HIT:          0  MISS:          0
cpu0_ITLB PREFETCH  ACCESS:          0  HIT:          0  MISS:          0
cpu0_ITLB WRITEBACK ACCESS:          0  HIT:          0  MISS:          0
cpu0_ITLB TRANSLATION ACCESS:          0  HIT:          0  MISS:          0
cpu0_ITLB PREFETCH  REQUESTED:          0  ISSUED:          0  USEFUL:          0  USELESS:          0
cpu0_ITLB AVERAGE MISS LATENCY: 395.667 cycles
cpu0_L1I TOTAL     ACCESS:      58681  HIT:      58542  MISS:        139
cpu0_L1I LOAD      ACCESS:      58681  HIT:      58542  MISS:        139
cpu0_L1I RFO       ACCESS:          0  HIT:          0  MISS:          0
cpu0_L1I PREFETCH  ACCESS:          0  HIT:          0  MISS:          0
cpu0_L1I WRITEBACK ACCESS:          0  HIT:          0  MISS:          0
cpu0_L1I TRANSLATION ACCESS:          0  HIT:          0  MISS:          0
cpu0_L1I PREFETCH  REQUESTED:          0  ISSUED:          0  USEFUL:          0  USELESS:          0
cpu0_L1I AVERAGE MISS LATENCY: 211.432 cycles
cpu0_STLB TOTAL     ACCESS:     661503  HIT:     660683  MISS:        820
cpu0_STLB LOAD      ACCESS:     657573  HIT:     657300  MISS:        273
cpu0_STLB RFO       ACCESS:       3930  HIT:       3383  MISS:        547
cpu0_STLB PREFETCH  ACCESS:          0  HIT:          0  MISS:          0
cpu0_STLB WRITEBACK ACCESS:          0  HIT:          0  MISS:          0
cpu0_STLB TRANSLATION ACCESS:          0  HIT:          0  MISS:          0
cpu0_STLB PREFETCH  REQUESTED:          0  ISSUED:          0  USEFUL:          0  USELESS:          0
cpu0_STLB AVERAGE MISS LATENCY: 213.455 cycles
cpu0_L1D TOTAL     ACCESS:   20310838  HIT:   19305274  MISS:    1005564
cpu0_L1D LOAD      ACCESS:   10359142  HIT:    9472774  MISS:     886368
cpu0_L1D RFO       ACCESS:    9950878  HIT:    9832001  MISS:     118877
cpu0_L1D PREFETCH  ACCESS:          0  HIT:          0  MISS:          0
cpu0_L1D WRITEBACK ACCESS:          0  HIT:          0  MISS:          0
cpu0_L1D TRANSLATION ACCESS:        818  HIT:        499  MISS:        319
cpu0_L1D PREFETCH  REQUESTED:          0  ISSUED:          0  USEFUL:          0  USELESS:          0
cpu0_L1D AVERAGE MISS LATENCY: 86.3619 cycles
cpu0_L2C TOTAL     ACCESS:    1222693  HIT:     525084  MISS:     697609
cpu0_L2C LOAD      ACCESS:     886504  HIT:     288922  MISS:     597582
cpu0_L2C RFO       ACCESS:     118876  HIT:      18903  MISS:      99973
cpu0_L2C PREFETCH  ACCESS:          0  HIT:          0  MISS:          0
cpu0_L2C WRITEBACK ACCESS:     216994  HIT:     216958  MISS:         36
cpu0_L2C TRANSLATION ACCESS:        319  HIT:        301  MISS:         18
cpu0_L2C PREFETCH  REQUESTED:          0  ISSUED:          0  USEFUL:          0  USELESS:          0
cpu0_L2C AVERAGE MISS LATENCY: 108.665 cycles
LLC TOTAL     ACCESS:     886571  HIT:     601793  MISS:     284778
LLC LOAD      ACCESS:     597582  HIT:     411283  MISS:     186299
LLC RFO       ACCESS:      99973  HIT:      35983  MISS:      63990
LLC PREFETCH  ACCESS:          0  HIT:          0  MISS:          0
LLC WRITEBACK ACCESS:     188998  HIT:     154525  MISS:      34473
LLC TRANSLATION ACCESS:         18  HIT:          2  MISS:         16
LLC PREFETCH  REQUESTED:          0  ISSUED:          0  USEFUL:          0  USELESS:          0
LLC AVERAGE MISS LATENCY: 214.748 cycles
Insertion Distribution: 
	LOAD 53182 0 81153 52546 
	RFO 17198 0 31155 31595 
	PREF 0 0 0 0 
	WRITEBACK 0 0 0 34473 
	 1 0 15 11 
Total Prefetch Downgrades: 0

DRAM Statistics
 CHANNEL 0
 RQ ROW_BUFFER_HIT:      36995  ROW_BUFFER_MISS:     213105
 DBUS AVG_CONGESTED_CYCLE:     3.9551
 WQ ROW_BUFFER_HIT:      13970  ROW_BUFFER_MISS:     113905  FULL:       1160


CPU 0 Branch Prediction Accuracy: 93.3658% MPKI: 11.2167 Average ROB Occupancy at Mispredict: 31.7466
Branch type MPKI
BRANCH_DIRECT_JUMP: 0.0006
BRANCH_INDIRECT: 0.01713
BRANCH_CONDITIONAL: 11.1989
BRANCH_DIRECT_CALL: 5e-05
BRANCH_INDIRECT_CALL: 0
BRANCH_RETURN: 6e-05

