
*** ChampSim Multicore Out-of-Order Simulator ***

Warmup Instructions: 10000000
Simulation Instructions: 100000000
Number of CPUs: 1
Off-chip DRAM Size: 4 GiB Channels: 1 Width: 64-bit Data Rate: 3200 MT/s

VirtualMemory physical capacity: 8588881920 num_ppages: 2096895
VirtualMemory page size: 4096 log2_page_size: 12

CPU 0 runs /datasets/cs240c-wi22-a00-public/data/Assignment2/lbm_94B.trace.xz
CPU 0 Bimodal branch predictor
Basic BTB sets: 1024 ways: 8 indirect buffer size: 4096 RAS size: 64
Initialize SRRIP state
Heartbeat CPU 0 instructions: 10000003 cycles: 2544751 heartbeat IPC: 3.92966 cumulative IPC: 3.92966 (Simulation time: 0 hr 0 min 27 sec) 

Warmup complete CPU 0 instructions: 10000003 cycles: 2544751 (Simulation time: 0 hr 0 min 27 sec) 

Heartbeat CPU 0 instructions: 20000000 cycles: 39290544 heartbeat IPC: 0.27214 cumulative IPC: 0.27214 (Simulation time: 0 hr 3 min 1 sec) 
Heartbeat CPU 0 instructions: 30000004 cycles: 74548057 heartbeat IPC: 0.283628 cumulative IPC: 0.277765 (Simulation time: 0 hr 5 min 29 sec) 
Heartbeat CPU 0 instructions: 40000002 cycles: 108872443 heartbeat IPC: 0.291338 cumulative IPC: 0.282147 (Simulation time: 0 hr 7 min 56 sec) 
Heartbeat CPU 0 instructions: 50000001 cycles: 142735815 heartbeat IPC: 0.295304 cumulative IPC: 0.285325 (Simulation time: 0 hr 10 min 12 sec) 
Heartbeat CPU 0 instructions: 60000003 cycles: 176039699 heartbeat IPC: 0.300265 cumulative IPC: 0.288193 (Simulation time: 0 hr 12 min 26 sec) 
Heartbeat CPU 0 instructions: 70000001 cycles: 209355299 heartbeat IPC: 0.30016 cumulative IPC: 0.290121 (Simulation time: 0 hr 14 min 34 sec) 
Heartbeat CPU 0 instructions: 80000003 cycles: 242694907 heartbeat IPC: 0.299944 cumulative IPC: 0.291484 (Simulation time: 0 hr 16 min 49 sec) 
Heartbeat CPU 0 instructions: 90000003 cycles: 275979600 heartbeat IPC: 0.300438 cumulative IPC: 0.292574 (Simulation time: 0 hr 19 min 2 sec) 
Heartbeat CPU 0 instructions: 100000001 cycles: 309600905 heartbeat IPC: 0.29743 cumulative IPC: 0.293106 (Simulation time: 0 hr 21 min 18 sec) 
Heartbeat CPU 0 instructions: 110000003 cycles: 343604740 heartbeat IPC: 0.294085 cumulative IPC: 0.293204 (Simulation time: 0 hr 23 min 29 sec) 
Finished CPU 0 instructions: 100000000 cycles: 341059989 cumulative IPC: 0.293204 (Simulation time: 0 hr 23 min 29 sec) 

ChampSim completed all CPUs

Region of Interest Statistics

CPU 0 cumulative IPC: 0.293204 instructions: 100000000 cycles: 341059989
cpu0_DTLB TOTAL     ACCESS:   13207888  HIT:   13160136  MISS:      47752
cpu0_DTLB LOAD      ACCESS:    6750457  HIT:    6738509  MISS:      11948
cpu0_DTLB RFO       ACCESS:    6457431  HIT:    6421627  MISS:      35804
cpu0_DTLB PREFETCH  ACCESS:          0  HIT:          0  MISS:          0
cpu0_DTLB WRITEBACK ACCESS:          0  HIT:          0  MISS:          0
cpu0_DTLB TRANSLATION ACCESS:          0  HIT:          0  MISS:          0
cpu0_DTLB PREFETCH  REQUESTED:          0  ISSUED:          0  USEFUL:          0  USELESS:          0
cpu0_DTLB AVERAGE MISS LATENCY: 185.712 cycles
cpu0_ITLB TOTAL     ACCESS:     123478  HIT:     123478  MISS:          0
cpu0_ITLB LOAD      ACCESS:     123478  HIT:     123478  MISS:          0
cpu0_ITLB RFO       ACCESS:          0  HIT:          0  MISS:          0
cpu0_ITLB PREFETCH  ACCESS:          0  HIT:          0  MISS:          0
cpu0_ITLB WRITEBACK ACCESS:          0  HIT:          0  MISS:          0
cpu0_ITLB TRANSLATION ACCESS:          0  HIT:          0  MISS:          0
cpu0_ITLB PREFETCH  REQUESTED:          0  ISSUED:          0  USEFUL:          0  USELESS:          0
cpu0_ITLB AVERAGE MISS LATENCY: -nan cycles
cpu0_STLB TOTAL     ACCESS:      47752  HIT:          0  MISS:      47752
cpu0_STLB LOAD      ACCESS:      11948  HIT:          0  MISS:      11948
cpu0_STLB RFO       ACCESS:      35804  HIT:          0  MISS:      35804
cpu0_STLB PREFETCH  ACCESS:          0  HIT:          0  MISS:          0
cpu0_STLB WRITEBACK ACCESS:          0  HIT:          0  MISS:          0
cpu0_STLB TRANSLATION ACCESS:          0  HIT:          0  MISS:          0
cpu0_STLB PREFETCH  REQUESTED:          0  ISSUED:          0  USEFUL:          0  USELESS:          0
cpu0_STLB AVERAGE MISS LATENCY: 176.712 cycles
cpu0_L1D TOTAL     ACCESS:   14663532  HIT:    9624997  MISS:    5038535
cpu0_L1D LOAD      ACCESS:    4302784  HIT:    3539309  MISS:     763475
cpu0_L1D RFO       ACCESS:   10312996  HIT:    6037983  MISS:    4275013
cpu0_L1D PREFETCH  ACCESS:          0  HIT:          0  MISS:          0
cpu0_L1D WRITEBACK ACCESS:          0  HIT:          0  MISS:          0
cpu0_L1D TRANSLATION ACCESS:      47752  HIT:      47705  MISS:         47
cpu0_L1D PREFETCH  REQUESTED:          0  ISSUED:          0  USEFUL:          0  USELESS:          0
cpu0_L1D AVERAGE MISS LATENCY: 450.547 cycles
cpu0_L2C TOTAL     ACCESS:    9313547  HIT:    6258423  MISS:    3055124
cpu0_L2C LOAD      ACCESS:     763475  HIT:          3  MISS:     763472
cpu0_L2C RFO       ACCESS:    4275013  HIT:    1983508  MISS:    2291505
cpu0_L2C PREFETCH  ACCESS:          0  HIT:          0  MISS:          0
cpu0_L2C WRITEBACK ACCESS:    4275012  HIT:    4274912  MISS:        100
cpu0_L2C TRANSLATION ACCESS:         47  HIT:          0  MISS:         47
cpu0_L2C PREFETCH  REQUESTED:          0  ISSUED:          0  USEFUL:          0  USELESS:          0
cpu0_L2C AVERAGE MISS LATENCY: 723.418 cycles
LLC TOTAL     ACCESS:    5346806  HIT:    1185545  MISS:    4161261
LLC LOAD      ACCESS:     763472  HIT:         46  MISS:     763426
LLC RFO       ACCESS:    2291505  HIT:     335744  MISS:    1955761
LLC PREFETCH  ACCESS:          0  HIT:          0  MISS:          0
LLC WRITEBACK ACCESS:    2291782  HIT:     849750  MISS:    1442032
LLC TRANSLATION ACCESS:         47  HIT:          5  MISS:         42
LLC PREFETCH  REQUESTED:          0  ISSUED:          0  USEFUL:          0  USELESS:          0
LLC AVERAGE MISS LATENCY: 515.703 cycles
Insertion Distribution: 
	LOAD 0 0 9829 839395 
	RFO 163032 0 419454 1594257 
	PREF 0 0 0 0 
	WRITEBACK 0 0 0 1587318 
	 0 0 49 6 
Total Prefetch Downgrades: 0

DRAM Statistics
 CHANNEL 0
 RQ ROW_BUFFER_HIT:      41098  ROW_BUFFER_MISS:    2677855
 DBUS AVG_CONGESTED_CYCLE:    3.99643
 WQ ROW_BUFFER_HIT:      20409  ROW_BUFFER_MISS:    1934606  FULL:       2081


CPU 0 Branch Prediction Accuracy: 99.132% MPKI: 0.10209 Average ROB Occupancy at Mispredict: 173.655
Branch type MPKI
BRANCH_DIRECT_JUMP: 0
BRANCH_INDIRECT: 0
BRANCH_CONDITIONAL: 0.10209
BRANCH_DIRECT_CALL: 0
BRANCH_INDIRECT_CALL: 0
BRANCH_RETURN: 0

