
*** ChampSim Multicore Out-of-Order Simulator ***

Warmup Instructions: 10000000
Simulation Instructions: 100000000
Number of CPUs: 1
Off-chip DRAM Size: 4 GiB Channels: 1 Width: 64-bit Data Rate: 3200 MT/s

VirtualMemory physical capacity: 8588881920 num_ppages: 2096895
VirtualMemory page size: 4096 log2_page_size: 12

CPU 0 runs /datasets/cs240c-wi22-a00-public/data/Assignment2/GemsFDTD_712B.trace.xz
CPU 0 Bimodal branch predictor
Basic BTB sets: 1024 ways: 8 indirect buffer size: 4096 RAS size: 64
Initialize SRRIP state
Heartbeat CPU 0 instructions: 10000003 cycles: 4479620 heartbeat IPC: 2.23233 cumulative IPC: 2.23233 (Simulation time: 0 hr 1 min 11 sec) 

Warmup complete CPU 0 instructions: 10000003 cycles: 4479620 (Simulation time: 0 hr 1 min 11 sec) 

Heartbeat CPU 0 instructions: 20000000 cycles: 44271942 heartbeat IPC: 0.251305 cumulative IPC: 0.251305 (Simulation time: 0 hr 5 min 50 sec) 
Heartbeat CPU 0 instructions: 30000001 cycles: 83900927 heartbeat IPC: 0.252341 cumulative IPC: 0.251822 (Simulation time: 0 hr 10 min 28 sec) 
Heartbeat CPU 0 instructions: 40000003 cycles: 123683015 heartbeat IPC: 0.251369 cumulative IPC: 0.251671 (Simulation time: 0 hr 15 min 4 sec) 
Heartbeat CPU 0 instructions: 50000003 cycles: 163499419 heartbeat IPC: 0.251153 cumulative IPC: 0.251541 (Simulation time: 0 hr 19 min 41 sec) 
Heartbeat CPU 0 instructions: 60000003 cycles: 203163335 heartbeat IPC: 0.252118 cumulative IPC: 0.251656 (Simulation time: 0 hr 24 min 16 sec) 
Heartbeat CPU 0 instructions: 70000002 cycles: 242943325 heartbeat IPC: 0.251383 cumulative IPC: 0.251611 (Simulation time: 0 hr 28 min 54 sec) 
Heartbeat CPU 0 instructions: 80000000 cycles: 277777101 heartbeat IPC: 0.287078 cumulative IPC: 0.256131 (Simulation time: 0 hr 32 min 7 sec) 
Heartbeat CPU 0 instructions: 90000000 cycles: 312536059 heartbeat IPC: 0.287696 cumulative IPC: 0.259693 (Simulation time: 0 hr 35 min 13 sec) 
Heartbeat CPU 0 instructions: 100000001 cycles: 347261129 heartbeat IPC: 0.287976 cumulative IPC: 0.262558 (Simulation time: 0 hr 38 min 18 sec) 
Heartbeat CPU 0 instructions: 110000002 cycles: 381815646 heartbeat IPC: 0.289398 cumulative IPC: 0.265016 (Simulation time: 0 hr 41 min 19 sec) 
Finished CPU 0 instructions: 100000004 cycles: 377336027 cumulative IPC: 0.265016 (Simulation time: 0 hr 41 min 19 sec) 

ChampSim completed all CPUs

Region of Interest Statistics

CPU 0 cumulative IPC: 0.265016 instructions: 100000004 cycles: 377336027
cpu0_DTLB TOTAL     ACCESS:   29848711  HIT:   29646065  MISS:     202646
cpu0_DTLB LOAD      ACCESS:   23906423  HIT:   23703777  MISS:     202646
cpu0_DTLB RFO       ACCESS:    5942288  HIT:    5942288  MISS:          0
cpu0_DTLB PREFETCH  ACCESS:          0  HIT:          0  MISS:          0
cpu0_DTLB WRITEBACK ACCESS:          0  HIT:          0  MISS:          0
cpu0_DTLB TRANSLATION ACCESS:          0  HIT:          0  MISS:          0
cpu0_DTLB PREFETCH  REQUESTED:          0  ISSUED:          0  USEFUL:          0  USELESS:          0
cpu0_DTLB AVERAGE MISS LATENCY: 158.14 cycles
cpu0_ITLB TOTAL     ACCESS:    1686145  HIT:    1686139  MISS:          6
cpu0_ITLB LOAD      ACCESS:    1686145  HIT:    1686139  MISS:          6
cpu0_ITLB RFO       ACCESS:          0  HIT:          0  MISS:          0
cpu0_ITLB PREFETCH  ACCESS:          0  HIT:          0  MISS:          0
cpu0_ITLB WRITEBACK ACCESS:          0  HIT:          0  MISS:          0
cpu0_ITLB TRANSLATION ACCESS:          0  HIT:          0  MISS:          0
cpu0_ITLB PREFETCH  REQUESTED:          0  ISSUED:          0  USEFUL:          0  USELESS:          0
cpu0_ITLB AVERAGE MISS LATENCY: 334.333 cycles
cpu0_L1I TOTAL     ACCESS:    3165532  HIT:    3165437  MISS:         95
cpu0_L1I LOAD      ACCESS:    3165532  HIT:    3165437  MISS:         95
cpu0_L1I RFO       ACCESS:          0  HIT:          0  MISS:          0
cpu0_L1I PREFETCH  ACCESS:          0  HIT:          0  MISS:          0
cpu0_L1I WRITEBACK ACCESS:          0  HIT:          0  MISS:          0
cpu0_L1I TRANSLATION ACCESS:          0  HIT:          0  MISS:          0
cpu0_L1I PREFETCH  REQUESTED:          0  ISSUED:          0  USEFUL:          0  USELESS:          0
cpu0_L1I AVERAGE MISS LATENCY: 415.084 cycles
cpu0_STLB TOTAL     ACCESS:     202652  HIT:      49544  MISS:     153108
cpu0_STLB LOAD      ACCESS:     202652  HIT:      49544  MISS:     153108
cpu0_STLB RFO       ACCESS:          0  HIT:          0  MISS:          0
cpu0_STLB PREFETCH  ACCESS:          0  HIT:          0  MISS:          0
cpu0_STLB WRITEBACK ACCESS:          0  HIT:          0  MISS:          0
cpu0_STLB TRANSLATION ACCESS:          0  HIT:          0  MISS:          0
cpu0_STLB PREFETCH  REQUESTED:          0  ISSUED:          0  USEFUL:          0  USELESS:          0
cpu0_STLB AVERAGE MISS LATENCY: 197.34 cycles
cpu0_L1D TOTAL     ACCESS:   29710826  HIT:   26362764  MISS:    3348062
cpu0_L1D LOAD      ACCESS:   18478894  HIT:   15133038  MISS:    3345856
cpu0_L1D RFO       ACCESS:   11079382  HIT:   11079362  MISS:         20
cpu0_L1D PREFETCH  ACCESS:          0  HIT:          0  MISS:          0
cpu0_L1D WRITEBACK ACCESS:          0  HIT:          0  MISS:          0
cpu0_L1D TRANSLATION ACCESS:     152550  HIT:     150364  MISS:       2186
cpu0_L1D PREFETCH  REQUESTED:          0  ISSUED:          0  USEFUL:          0  USELESS:          0
cpu0_L1D AVERAGE MISS LATENCY: 688.548 cycles
cpu0_L2C TOTAL     ACCESS:    4725128  HIT:    1561851  MISS:    3163277
cpu0_L2C LOAD      ACCESS:    3345951  HIT:     182785  MISS:    3163166
cpu0_L2C RFO       ACCESS:         20  HIT:          0  MISS:         20
cpu0_L2C PREFETCH  ACCESS:          0  HIT:          0  MISS:          0
cpu0_L2C WRITEBACK ACCESS:    1376971  HIT:    1376967  MISS:          4
cpu0_L2C TRANSLATION ACCESS:       2186  HIT:       2099  MISS:         87
cpu0_L2C PREFETCH  REQUESTED:          0  ISSUED:          0  USEFUL:          0  USELESS:          0
cpu0_L2C AVERAGE MISS LATENCY: 717.115 cycles
LLC TOTAL     ACCESS:    4538781  HIT:     536960  MISS:    4001821
LLC LOAD      ACCESS:    3163166  HIT:     531787  MISS:    2631379
LLC RFO       ACCESS:         20  HIT:          0  MISS:         20
LLC PREFETCH  ACCESS:          0  HIT:          0  MISS:          0
LLC WRITEBACK ACCESS:    1375508  HIT:       5141  MISS:    1370367
LLC TRANSLATION ACCESS:         87  HIT:         32  MISS:         55
LLC PREFETCH  REQUESTED:          0  ISSUED:          0  USEFUL:          0  USELESS:          0
LLC AVERAGE MISS LATENCY: 550.251 cycles
Insertion Distribution: 
	LOAD 617675 0 0 0 0 0 77871 2249794 
	RFO 0 0 0 0 0 0 20 0 
	PREF 0 0 0 0 0 0 0 0 
	WRITEBACK 0 0 0 0 0 0 0 1497758 
	 18 0 0 0 0 0 21 35 
Total Prefetch Downgrades: 0

DRAM Statistics
 CHANNEL 0
 RQ ROW_BUFFER_HIT:       8139  ROW_BUFFER_MISS:    2623315
 DBUS AVG_CONGESTED_CYCLE:    3.99789
 WQ ROW_BUFFER_HIT:      22174  ROW_BUFFER_MISS:    1351283  FULL:          0


CPU 0 Branch Prediction Accuracy: 90.9863% MPKI: 1.62566 Average ROB Occupancy at Mispredict: 227.364
Branch type MPKI
BRANCH_DIRECT_JUMP: 5e-05
BRANCH_INDIRECT: 0
BRANCH_CONDITIONAL: 1.62559
BRANCH_DIRECT_CALL: 1e-05
BRANCH_INDIRECT_CALL: 0
BRANCH_RETURN: 1e-05

