
*** ChampSim Multicore Out-of-Order Simulator ***

Warmup Instructions: 10000000
Simulation Instructions: 100000000
Number of CPUs: 1
Off-chip DRAM Size: 4 GiB Channels: 1 Width: 64-bit Data Rate: 3200 MT/s

VirtualMemory physical capacity: 8588881920 num_ppages: 2096895
VirtualMemory page size: 4096 log2_page_size: 12

CPU 0 runs /datasets/cs240c-wi22-a00-public/data/Assignment2/bzip2_259B.trace.xz
CPU 0 Bimodal branch predictor
Basic BTB sets: 1024 ways: 8 indirect buffer size: 4096 RAS size: 64
Initialize SRRIP state
Heartbeat CPU 0 instructions: 10000002 cycles: 2535454 heartbeat IPC: 3.94407 cumulative IPC: 3.94407 (Simulation time: 0 hr 0 min 26 sec) 

Warmup complete CPU 0 instructions: 10000002 cycles: 2535454 (Simulation time: 0 hr 0 min 26 sec) 

Heartbeat CPU 0 instructions: 20000003 cycles: 9096041 heartbeat IPC: 1.52425 cumulative IPC: 1.52425 (Simulation time: 0 hr 1 min 26 sec) 
Heartbeat CPU 0 instructions: 30000002 cycles: 14564990 heartbeat IPC: 1.8285 cumulative IPC: 1.66257 (Simulation time: 0 hr 2 min 19 sec) 
Heartbeat CPU 0 instructions: 40000003 cycles: 21097114 heartbeat IPC: 1.5309 cumulative IPC: 1.61623 (Simulation time: 0 hr 3 min 1 sec) 
Heartbeat CPU 0 instructions: 50000003 cycles: 29302903 heartbeat IPC: 1.21865 cumulative IPC: 1.49435 (Simulation time: 0 hr 3 min 31 sec) 
Heartbeat CPU 0 instructions: 60000001 cycles: 37208466 heartbeat IPC: 1.26493 cumulative IPC: 1.44204 (Simulation time: 0 hr 4 min 0 sec) 
Heartbeat CPU 0 instructions: 70000004 cycles: 44137945 heartbeat IPC: 1.44311 cumulative IPC: 1.44222 (Simulation time: 0 hr 4 min 57 sec) 
Heartbeat CPU 0 instructions: 80000004 cycles: 50757297 heartbeat IPC: 1.51072 cumulative IPC: 1.45162 (Simulation time: 0 hr 5 min 57 sec) 
Heartbeat CPU 0 instructions: 90000001 cycles: 57010152 heartbeat IPC: 1.59927 cumulative IPC: 1.46857 (Simulation time: 0 hr 6 min 45 sec) 
Heartbeat CPU 0 instructions: 100000000 cycles: 65409125 heartbeat IPC: 1.19062 cumulative IPC: 1.43144 (Simulation time: 0 hr 7 min 17 sec) 
Heartbeat CPU 0 instructions: 110000000 cycles: 73401492 heartbeat IPC: 1.25119 cumulative IPC: 1.41111 (Simulation time: 0 hr 7 min 49 sec) 
Finished CPU 0 instructions: 100000003 cycles: 70866043 cumulative IPC: 1.41111 (Simulation time: 0 hr 7 min 49 sec) 

ChampSim completed all CPUs

Region of Interest Statistics

CPU 0 cumulative IPC: 1.41111 instructions: 100000003 cycles: 70866043
cpu0_DTLB TOTAL     ACCESS:   18621935  HIT:   17960608  MISS:     661327
cpu0_DTLB LOAD      ACCESS:    9568720  HIT:    8911329  MISS:     657391
cpu0_DTLB RFO       ACCESS:    9053215  HIT:    9049279  MISS:       3936
cpu0_DTLB PREFETCH  ACCESS:          0  HIT:          0  MISS:          0
cpu0_DTLB WRITEBACK ACCESS:          0  HIT:          0  MISS:          0
cpu0_DTLB TRANSLATION ACCESS:          0  HIT:          0  MISS:          0
cpu0_DTLB PREFETCH  REQUESTED:          0  ISSUED:          0  USEFUL:          0  USELESS:          0
cpu0_DTLB AVERAGE MISS LATENCY: 9.26307 cycles
cpu0_ITLB TOTAL     ACCESS:    6753111  HIT:    6753108  MISS:          3
cpu0_ITLB LOAD      ACCESS:    6753111  HIT:    6753108  MISS:          3
cpu0_ITLB RFO       ACCESS:          0  HIT:          0  MISS:          0
cpu0_ITLB PREFETCH  ACCESS:          0  HIT:          0  MISS:          0
cpu0_ITLB WRITEBACK ACCESS:          0  HIT:          0  MISS:          0
cpu0_ITLB TRANSLATION ACCESS:          0  HIT:          0  MISS:          0
cpu0_ITLB PREFETCH  REQUESTED:          0  ISSUED:          0  USEFUL:          0  USELESS:          0
cpu0_ITLB AVERAGE MISS LATENCY: 395.333 cycles
cpu0_L1I TOTAL     ACCESS:      58693  HIT:      58554  MISS:        139
cpu0_L1I LOAD      ACCESS:      58693  HIT:      58554  MISS:        139
cpu0_L1I RFO       ACCESS:          0  HIT:          0  MISS:          0
cpu0_L1I PREFETCH  ACCESS:          0  HIT:          0  MISS:          0
cpu0_L1I WRITEBACK ACCESS:          0  HIT:          0  MISS:          0
cpu0_L1I TRANSLATION ACCESS:          0  HIT:          0  MISS:          0
cpu0_L1I PREFETCH  REQUESTED:          0  ISSUED:          0  USEFUL:          0  USELESS:          0
cpu0_L1I AVERAGE MISS LATENCY: 213.676 cycles
cpu0_STLB TOTAL     ACCESS:     661330  HIT:     660510  MISS:        820
cpu0_STLB LOAD      ACCESS:     657394  HIT:     657122  MISS:        272
cpu0_STLB RFO       ACCESS:       3936  HIT:       3388  MISS:        548
cpu0_STLB PREFETCH  ACCESS:          0  HIT:          0  MISS:          0
cpu0_STLB WRITEBACK ACCESS:          0  HIT:          0  MISS:          0
cpu0_STLB TRANSLATION ACCESS:          0  HIT:          0  MISS:          0
cpu0_STLB PREFETCH  REQUESTED:          0  ISSUED:          0  USEFUL:          0  USELESS:          0
cpu0_STLB AVERAGE MISS LATENCY: 213.513 cycles
cpu0_L1D TOTAL     ACCESS:   20307714  HIT:   19302153  MISS:    1005561
cpu0_L1D LOAD      ACCESS:   10356148  HIT:    9469783  MISS:     886365
cpu0_L1D RFO       ACCESS:    9950749  HIT:    9831872  MISS:     118877
cpu0_L1D PREFETCH  ACCESS:          0  HIT:          0  MISS:          0
cpu0_L1D WRITEBACK ACCESS:          0  HIT:          0  MISS:          0
cpu0_L1D TRANSLATION ACCESS:        817  HIT:        498  MISS:        319
cpu0_L1D PREFETCH  REQUESTED:          0  ISSUED:          0  USEFUL:          0  USELESS:          0
cpu0_L1D AVERAGE MISS LATENCY: 89.8173 cycles
cpu0_L2C TOTAL     ACCESS:    1222690  HIT:     525076  MISS:     697614
cpu0_L2C LOAD      ACCESS:     886503  HIT:     288916  MISS:     597587
cpu0_L2C RFO       ACCESS:     118875  HIT:      18902  MISS:      99973
cpu0_L2C PREFETCH  ACCESS:          0  HIT:          0  MISS:          0
cpu0_L2C WRITEBACK ACCESS:     216993  HIT:     216957  MISS:         36
cpu0_L2C TRANSLATION ACCESS:        319  HIT:        301  MISS:         18
cpu0_L2C PREFETCH  REQUESTED:          0  ISSUED:          0  USEFUL:          0  USELESS:          0
cpu0_L2C AVERAGE MISS LATENCY: 113.645 cycles
LLC TOTAL     ACCESS:     886576  HIT:     601822  MISS:     284754
LLC LOAD      ACCESS:     597586  HIT:     407688  MISS:     189898
LLC RFO       ACCESS:      99973  HIT:      36589  MISS:      63384
LLC PREFETCH  ACCESS:          0  HIT:          0  MISS:          0
LLC WRITEBACK ACCESS:     188999  HIT:     157544  MISS:      31455
LLC TRANSLATION ACCESS:         18  HIT:          1  MISS:         17
LLC PREFETCH  REQUESTED:          0  ISSUED:          0  USEFUL:          0  USELESS:          0
LLC AVERAGE MISS LATENCY: 226.969 cycles
Insertion Distribution: 
	LOAD 51530 0 80614 58336 
	RFO 15157 0 32942 31243 
	PREF 0 0 0 0 
	WRITEBACK 0 0 0 31455 
	 1 0 15 12 
Total Prefetch Downgrades: 0

DRAM Statistics
 CHANNEL 0
 RQ ROW_BUFFER_HIT:      35455  ROW_BUFFER_MISS:     217665
 DBUS AVG_CONGESTED_CYCLE:     3.9568
 WQ ROW_BUFFER_HIT:      13757  ROW_BUFFER_MISS:     117508  FULL:        499


CPU 0 Branch Prediction Accuracy: 93.3658% MPKI: 11.2167 Average ROB Occupancy at Mispredict: 31.7481
Branch type MPKI
BRANCH_DIRECT_JUMP: 0.0006
BRANCH_INDIRECT: 0.01713
BRANCH_CONDITIONAL: 11.1989
BRANCH_DIRECT_CALL: 5e-05
BRANCH_INDIRECT_CALL: 0
BRANCH_RETURN: 6e-05

