
*** ChampSim Multicore Out-of-Order Simulator ***

Warmup Instructions: 10000000
Simulation Instructions: 100000000
Number of CPUs: 1
Off-chip DRAM Size: 4 GiB Channels: 1 Width: 64-bit Data Rate: 3200 MT/s

VirtualMemory physical capacity: 8588881920 num_ppages: 2096895
VirtualMemory page size: 4096 log2_page_size: 12

CPU 0 runs /datasets/cs240c-wi22-a00-public/data/Assignment2/sphinx3_1339B.trace.xz
CPU 0 Bimodal branch predictor
Basic BTB sets: 1024 ways: 8 indirect buffer size: 4096 RAS size: 64
Initialize SRRIP state
Heartbeat CPU 0 instructions: 10000000 cycles: 2584401 heartbeat IPC: 3.86937 cumulative IPC: 3.86937 (Simulation time: 0 hr 0 min 32 sec) 

Warmup complete CPU 0 instructions: 10000004 cycles: 2584402 (Simulation time: 0 hr 0 min 32 sec) 

Heartbeat CPU 0 instructions: 20000003 cycles: 10171362 heartbeat IPC: 1.31805 cumulative IPC: 1.31805 (Simulation time: 0 hr 1 min 20 sec) 
Heartbeat CPU 0 instructions: 30000002 cycles: 17436187 heartbeat IPC: 1.3765 cumulative IPC: 1.34664 (Simulation time: 0 hr 2 min 8 sec) 
Heartbeat CPU 0 instructions: 40000002 cycles: 25566140 heartbeat IPC: 1.23002 cumulative IPC: 1.30538 (Simulation time: 0 hr 2 min 59 sec) 
Heartbeat CPU 0 instructions: 50000004 cycles: 33484237 heartbeat IPC: 1.26293 cumulative IPC: 1.29451 (Simulation time: 0 hr 3 min 50 sec) 
Heartbeat CPU 0 instructions: 60000003 cycles: 41429758 heartbeat IPC: 1.25857 cumulative IPC: 1.28716 (Simulation time: 0 hr 4 min 40 sec) 
Heartbeat CPU 0 instructions: 70000002 cycles: 49421594 heartbeat IPC: 1.25128 cumulative IPC: 1.28103 (Simulation time: 0 hr 5 min 30 sec) 
Heartbeat CPU 0 instructions: 80000001 cycles: 57344117 heartbeat IPC: 1.26222 cumulative IPC: 1.27831 (Simulation time: 0 hr 6 min 21 sec) 
Heartbeat CPU 0 instructions: 90000001 cycles: 65216894 heartbeat IPC: 1.2702 cumulative IPC: 1.27729 (Simulation time: 0 hr 7 min 11 sec) 
Heartbeat CPU 0 instructions: 100000002 cycles: 73310159 heartbeat IPC: 1.2356 cumulative IPC: 1.27252 (Simulation time: 0 hr 8 min 2 sec) 
Heartbeat CPU 0 instructions: 110000000 cycles: 82121659 heartbeat IPC: 1.13488 cumulative IPC: 1.25727 (Simulation time: 0 hr 8 min 55 sec) 
Finished CPU 0 instructions: 100000001 cycles: 79537258 cumulative IPC: 1.25727 (Simulation time: 0 hr 8 min 55 sec) 

ChampSim completed all CPUs

Region of Interest Statistics

CPU 0 cumulative IPC: 1.25727 instructions: 100000001 cycles: 79537258
cpu0_DTLB TOTAL     ACCESS:   16177013  HIT:   16068239  MISS:     108774
cpu0_DTLB LOAD      ACCESS:   15018395  HIT:   14915567  MISS:     102828
cpu0_DTLB RFO       ACCESS:    1158618  HIT:    1152672  MISS:       5946
cpu0_DTLB PREFETCH  ACCESS:          0  HIT:          0  MISS:          0
cpu0_DTLB WRITEBACK ACCESS:          0  HIT:          0  MISS:          0
cpu0_DTLB TRANSLATION ACCESS:          0  HIT:          0  MISS:          0
cpu0_DTLB PREFETCH  REQUESTED:          0  ISSUED:          0  USEFUL:          0  USELESS:          0
cpu0_DTLB AVERAGE MISS LATENCY: 13.266 cycles
cpu0_ITLB TOTAL     ACCESS:    9600294  HIT:    9600252  MISS:         42
cpu0_ITLB LOAD      ACCESS:    9600294  HIT:    9600252  MISS:         42
cpu0_ITLB RFO       ACCESS:          0  HIT:          0  MISS:          0
cpu0_ITLB PREFETCH  ACCESS:          0  HIT:          0  MISS:          0
cpu0_ITLB WRITEBACK ACCESS:          0  HIT:          0  MISS:          0
cpu0_ITLB TRANSLATION ACCESS:          0  HIT:          0  MISS:          0
cpu0_ITLB PREFETCH  REQUESTED:          0  ISSUED:          0  USEFUL:          0  USELESS:          0
cpu0_ITLB AVERAGE MISS LATENCY: 122.881 cycles
cpu0_L1I TOTAL     ACCESS:     299464  HIT:     297900  MISS:       1564
cpu0_L1I LOAD      ACCESS:     299464  HIT:     297900  MISS:       1564
cpu0_L1I RFO       ACCESS:          0  HIT:          0  MISS:          0
cpu0_L1I PREFETCH  ACCESS:          0  HIT:          0  MISS:          0
cpu0_L1I WRITEBACK ACCESS:          0  HIT:          0  MISS:          0
cpu0_L1I TRANSLATION ACCESS:          0  HIT:          0  MISS:          0
cpu0_L1I PREFETCH  REQUESTED:          0  ISSUED:          0  USEFUL:          0  USELESS:          0
cpu0_L1I AVERAGE MISS LATENCY: 170.147 cycles
cpu0_STLB TOTAL     ACCESS:     108816  HIT:      69707  MISS:      39109
cpu0_STLB LOAD      ACCESS:     102870  HIT:      64841  MISS:      38029
cpu0_STLB RFO       ACCESS:       5946  HIT:       4866  MISS:       1080
cpu0_STLB PREFETCH  ACCESS:          0  HIT:          0  MISS:          0
cpu0_STLB WRITEBACK ACCESS:          0  HIT:          0  MISS:          0
cpu0_STLB TRANSLATION ACCESS:          0  HIT:          0  MISS:          0
cpu0_STLB PREFETCH  REQUESTED:          0  ISSUED:          0  USEFUL:          0  USELESS:          0
cpu0_STLB AVERAGE MISS LATENCY: 11.8419 cycles
cpu0_L1D TOTAL     ACCESS:   11973441  HIT:   10474286  MISS:    1499155
cpu0_L1D LOAD      ACCESS:   10170776  HIT:    8792718  MISS:    1378058
cpu0_L1D RFO       ACCESS:    1765688  HIT:    1645085  MISS:     120603
cpu0_L1D PREFETCH  ACCESS:          0  HIT:          0  MISS:          0
cpu0_L1D WRITEBACK ACCESS:          0  HIT:          0  MISS:          0
cpu0_L1D TRANSLATION ACCESS:      36977  HIT:      36483  MISS:        494
cpu0_L1D PREFETCH  REQUESTED:          0  ISSUED:          0  USEFUL:          0  USELESS:          0
cpu0_L1D AVERAGE MISS LATENCY: 93.9559 cycles
cpu0_L2C TOTAL     ACCESS:    1642840  HIT:     358292  MISS:    1284548
cpu0_L2C LOAD      ACCESS:    1379613  HIT:     204252  MISS:    1175361
cpu0_L2C RFO       ACCESS:     120601  HIT:      11968  MISS:     108633
cpu0_L2C PREFETCH  ACCESS:          0  HIT:          0  MISS:          0
cpu0_L2C WRITEBACK ACCESS:     142132  HIT:     141864  MISS:        268
cpu0_L2C TRANSLATION ACCESS:        494  HIT:        208  MISS:        286
cpu0_L2C PREFETCH  REQUESTED:          0  ISSUED:          0  USEFUL:          0  USELESS:          0
cpu0_L2C AVERAGE MISS LATENCY: 96.9696 cycles
LLC TOTAL     ACCESS:    1413659  HIT:     884535  MISS:     529124
LLC LOAD      ACCESS:    1175356  HIT:     660049  MISS:     515307
LLC RFO       ACCESS:     108633  HIT:     101999  MISS:       6634
LLC PREFETCH  ACCESS:          0  HIT:          0  MISS:          0
LLC WRITEBACK ACCESS:     129384  HIT:     122226  MISS:       7158
LLC TRANSLATION ACCESS:        286  HIT:        261  MISS:         25
LLC PREFETCH  REQUESTED:          0  ISSUED:          0  USEFUL:          0  USELESS:          0
LLC AVERAGE MISS LATENCY: 184.438 cycles
Insertion Distribution: 
	LOAD 8965 0 0 0 0 0 0 0 0 0 0 0 0 0 69248 523316 
	RFO 1050 0 0 0 0 0 0 0 0 0 0 0 0 0 5148 5245 
	PREF 0 0 0 0 0 0 0 0 0 0 0 0 0 0 0 0 
	WRITEBACK 0 0 0 0 0 0 0 0 0 0 0 0 0 0 0 7323 
	 1 0 0 0 0 0 0 0 0 0 0 0 0 0 16 26 
Total Prefetch Downgrades: 0

DRAM Statistics
 CHANNEL 0
 RQ ROW_BUFFER_HIT:      63713  ROW_BUFFER_MISS:     458230
 DBUS AVG_CONGESTED_CYCLE:    3.74987
 WQ ROW_BUFFER_HIT:       4427  ROW_BUFFER_MISS:       6649  FULL:          0


CPU 0 Branch Prediction Accuracy: 92.5867% MPKI: 6.65069 Average ROB Occupancy at Mispredict: 177.304
Branch type MPKI
BRANCH_DIRECT_JUMP: 0.00112
BRANCH_INDIRECT: 0
BRANCH_CONDITIONAL: 6.64811
BRANCH_DIRECT_CALL: 0.00071
BRANCH_INDIRECT_CALL: 3e-05
BRANCH_RETURN: 0.00072

