
*** ChampSim Multicore Out-of-Order Simulator ***

Warmup Instructions: 10000000
Simulation Instructions: 100000000
Number of CPUs: 1
Off-chip DRAM Size: 4 GiB Channels: 1 Width: 64-bit Data Rate: 3200 MT/s

VirtualMemory physical capacity: 8588881920 num_ppages: 2096895
VirtualMemory page size: 4096 log2_page_size: 12

CPU 0 runs /datasets/cs240c-wi22-a00-public/data/Assignment2/leslie3d_1186B.trace.xz
CPU 0 Bimodal branch predictor
Basic BTB sets: 1024 ways: 8 indirect buffer size: 4096 RAS size: 64
Initialize SRRIP state
Heartbeat CPU 0 instructions: 10000000 cycles: 4308787 heartbeat IPC: 2.32084 cumulative IPC: 2.32084 (Simulation time: 0 hr 1 min 15 sec) 

Warmup complete CPU 0 instructions: 10000005 cycles: 4308788 (Simulation time: 0 hr 1 min 15 sec) 

Heartbeat CPU 0 instructions: 20000000 cycles: 18108346 heartbeat IPC: 0.724661 cumulative IPC: 0.724661 (Simulation time: 0 hr 3 min 23 sec) 
Heartbeat CPU 0 instructions: 30000000 cycles: 32031312 heartbeat IPC: 0.718238 cumulative IPC: 0.721435 (Simulation time: 0 hr 5 min 30 sec) 
Heartbeat CPU 0 instructions: 40000004 cycles: 45693607 heartbeat IPC: 0.731942 cumulative IPC: 0.724903 (Simulation time: 0 hr 7 min 38 sec) 
Heartbeat CPU 0 instructions: 50000001 cycles: 64968925 heartbeat IPC: 0.518798 cumulative IPC: 0.659412 (Simulation time: 0 hr 10 min 0 sec) 
Heartbeat CPU 0 instructions: 60000000 cycles: 101960109 heartbeat IPC: 0.270335 cumulative IPC: 0.512026 (Simulation time: 0 hr 13 min 50 sec) 
Heartbeat CPU 0 instructions: 70000000 cycles: 130503635 heartbeat IPC: 0.350342 cumulative IPC: 0.475455 (Simulation time: 0 hr 17 min 5 sec) 
Heartbeat CPU 0 instructions: 80000003 cycles: 140837099 heartbeat IPC: 0.96773 cumulative IPC: 0.512714 (Simulation time: 0 hr 18 min 53 sec) 
Heartbeat CPU 0 instructions: 90000002 cycles: 151182688 heartbeat IPC: 0.966595 cumulative IPC: 0.544685 (Simulation time: 0 hr 20 min 41 sec) 
Heartbeat CPU 0 instructions: 100000000 cycles: 161466342 heartbeat IPC: 0.972417 cumulative IPC: 0.572674 (Simulation time: 0 hr 22 min 28 sec) 
Heartbeat CPU 0 instructions: 110000000 cycles: 171800251 heartbeat IPC: 0.967688 cumulative IPC: 0.597045 (Simulation time: 0 hr 24 min 15 sec) 
Finished CPU 0 instructions: 100000000 cycles: 167491464 cumulative IPC: 0.597045 (Simulation time: 0 hr 24 min 15 sec) 

ChampSim completed all CPUs

Region of Interest Statistics

CPU 0 cumulative IPC: 0.597045 instructions: 100000000 cycles: 167491464
cpu0_DTLB TOTAL     ACCESS:   27965284  HIT:   27867680  MISS:      97604
cpu0_DTLB LOAD      ACCESS:   23291165  HIT:   23205312  MISS:      85853
cpu0_DTLB RFO       ACCESS:    4674119  HIT:    4662368  MISS:      11751
cpu0_DTLB PREFETCH  ACCESS:          0  HIT:          0  MISS:          0
cpu0_DTLB WRITEBACK ACCESS:          0  HIT:          0  MISS:          0
cpu0_DTLB TRANSLATION ACCESS:          0  HIT:          0  MISS:          0
cpu0_DTLB PREFETCH  REQUESTED:          0  ISSUED:          0  USEFUL:          0  USELESS:          0
cpu0_DTLB AVERAGE MISS LATENCY: 51.7017 cycles
cpu0_ITLB TOTAL     ACCESS:    2913496  HIT:    2913483  MISS:         13
cpu0_ITLB LOAD      ACCESS:    2913496  HIT:    2913483  MISS:         13
cpu0_ITLB RFO       ACCESS:          0  HIT:          0  MISS:          0
cpu0_ITLB PREFETCH  ACCESS:          0  HIT:          0  MISS:          0
cpu0_ITLB WRITEBACK ACCESS:          0  HIT:          0  MISS:          0
cpu0_ITLB TRANSLATION ACCESS:          0  HIT:          0  MISS:          0
cpu0_ITLB PREFETCH  REQUESTED:          0  ISSUED:          0  USEFUL:          0  USELESS:          0
cpu0_ITLB AVERAGE MISS LATENCY: 294.308 cycles
cpu0_L1I TOTAL     ACCESS:    1736724  HIT:    1736344  MISS:        380
cpu0_L1I LOAD      ACCESS:    1736724  HIT:    1736344  MISS:        380
cpu0_L1I RFO       ACCESS:          0  HIT:          0  MISS:          0
cpu0_L1I PREFETCH  ACCESS:          0  HIT:          0  MISS:          0
cpu0_L1I WRITEBACK ACCESS:          0  HIT:          0  MISS:          0
cpu0_L1I TRANSLATION ACCESS:          0  HIT:          0  MISS:          0
cpu0_L1I PREFETCH  REQUESTED:          0  ISSUED:          0  USEFUL:          0  USELESS:          0
cpu0_L1I AVERAGE MISS LATENCY: 307.458 cycles
cpu0_STLB TOTAL     ACCESS:      97617  HIT:      70215  MISS:      27402
cpu0_STLB LOAD      ACCESS:      85866  HIT:      63139  MISS:      22727
cpu0_STLB RFO       ACCESS:      11751  HIT:       7076  MISS:       4675
cpu0_STLB PREFETCH  ACCESS:          0  HIT:          0  MISS:          0
cpu0_STLB WRITEBACK ACCESS:          0  HIT:          0  MISS:          0
cpu0_STLB TRANSLATION ACCESS:          0  HIT:          0  MISS:          0
cpu0_STLB PREFETCH  REQUESTED:          0  ISSUED:          0  USEFUL:          0  USELESS:          0
cpu0_STLB AVERAGE MISS LATENCY: 152.181 cycles
cpu0_L1D TOTAL     ACCESS:   26960326  HIT:   23057438  MISS:    3902888
cpu0_L1D LOAD      ACCESS:   17740468  HIT:   14556545  MISS:    3183923
cpu0_L1D RFO       ACCESS:    9195259  HIT:    8479736  MISS:     715523
cpu0_L1D PREFETCH  ACCESS:          0  HIT:          0  MISS:          0
cpu0_L1D WRITEBACK ACCESS:          0  HIT:          0  MISS:          0
cpu0_L1D TRANSLATION ACCESS:      24599  HIT:      21157  MISS:       3442
cpu0_L1D PREFETCH  REQUESTED:          0  ISSUED:          0  USEFUL:          0  USELESS:          0
cpu0_L1D AVERAGE MISS LATENCY: 375.2 cycles
cpu0_L2C TOTAL     ACCESS:    4956383  HIT:    2399033  MISS:    2557350
cpu0_L2C LOAD      ACCESS:    3184251  HIT:    1036973  MISS:    2147278
cpu0_L2C RFO       ACCESS:     715202  HIT:     307544  MISS:     407658
cpu0_L2C PREFETCH  ACCESS:          0  HIT:          0  MISS:          0
cpu0_L2C WRITEBACK ACCESS:    1053488  HIT:    1051284  MISS:       2204
cpu0_L2C TRANSLATION ACCESS:       3442  HIT:       3232  MISS:        210
cpu0_L2C PREFETCH  REQUESTED:          0  ISSUED:          0  USEFUL:          0  USELESS:          0
cpu0_L2C AVERAGE MISS LATENCY: 555.814 cycles
LLC TOTAL     ACCESS:    3217482  HIT:     777436  MISS:    2440046
LLC LOAD      ACCESS:    2147270  HIT:     479200  MISS:    1668070
LLC RFO       ACCESS:     407648  HIT:     117425  MISS:     290223
LLC PREFETCH  ACCESS:          0  HIT:          0  MISS:          0
LLC WRITEBACK ACCESS:     662354  HIT:     180618  MISS:     481736
LLC TRANSLATION ACCESS:        210  HIT:        193  MISS:         17
LLC PREFETCH  REQUESTED:          0  ISSUED:          0  USEFUL:          0  USELESS:          0
LLC AVERAGE MISS LATENCY: 560.501 cycles
Insertion Distribution: 
	LOAD 0 0 395296 1438513 
	RFO 0 0 25670 266580 
	PREF 0 0 0 0 
	WRITEBACK 0 0 0 500111 
	 0 0 34 2 
Total Prefetch Downgrades: 0

DRAM Statistics
 CHANNEL 0
 RQ ROW_BUFFER_HIT:     223391  ROW_BUFFER_MISS:    1734863
 DBUS AVG_CONGESTED_CYCLE:    3.95311
 WQ ROW_BUFFER_HIT:      40160  ROW_BUFFER_MISS:     488391  FULL:      21263


CPU 0 Branch Prediction Accuracy: 96.8384% MPKI: 1.47634 Average ROB Occupancy at Mispredict: 312.545
Branch type MPKI
BRANCH_DIRECT_JUMP: 0.00016
BRANCH_INDIRECT: 0
BRANCH_CONDITIONAL: 1.47504
BRANCH_DIRECT_CALL: 0.00057
BRANCH_INDIRECT_CALL: 0
BRANCH_RETURN: 0.00057

