
*** ChampSim Multicore Out-of-Order Simulator ***

Warmup Instructions: 10000000
Simulation Instructions: 100000000
Number of CPUs: 1
Off-chip DRAM Size: 4 GiB Channels: 1 Width: 64-bit Data Rate: 3200 MT/s

VirtualMemory physical capacity: 8588881920 num_ppages: 2096895
VirtualMemory page size: 4096 log2_page_size: 12

CPU 0 runs /datasets/cs240c-wi22-a00-public/data/Assignment2/soplex_66B.trace.xz
CPU 0 Bimodal branch predictor
Basic BTB sets: 1024 ways: 8 indirect buffer size: 4096 RAS size: 64
Initialize SRRIP state
Heartbeat CPU 0 instructions: 10000001 cycles: 2688398 heartbeat IPC: 3.71969 cumulative IPC: 3.71969 (Simulation time: 0 hr 0 min 33 sec) 

Warmup complete CPU 0 instructions: 10000001 cycles: 2688398 (Simulation time: 0 hr 0 min 33 sec) 

Heartbeat CPU 0 instructions: 20000003 cycles: 27044972 heartbeat IPC: 0.410567 cumulative IPC: 0.410567 (Simulation time: 0 hr 1 min 57 sec) 
Heartbeat CPU 0 instructions: 30000001 cycles: 51046975 heartbeat IPC: 0.416632 cumulative IPC: 0.413577 (Simulation time: 0 hr 3 min 21 sec) 
Heartbeat CPU 0 instructions: 40000002 cycles: 75331584 heartbeat IPC: 0.411783 cumulative IPC: 0.412977 (Simulation time: 0 hr 4 min 43 sec) 
Heartbeat CPU 0 instructions: 50000002 cycles: 108201428 heartbeat IPC: 0.30423 cumulative IPC: 0.3791 (Simulation time: 0 hr 6 min 48 sec) 
Heartbeat CPU 0 instructions: 60000002 cycles: 143237023 heartbeat IPC: 0.285424 cumulative IPC: 0.355749 (Simulation time: 0 hr 8 min 58 sec) 
Heartbeat CPU 0 instructions: 70000001 cycles: 169567851 heartbeat IPC: 0.379783 cumulative IPC: 0.359541 (Simulation time: 0 hr 10 min 33 sec) 
Heartbeat CPU 0 instructions: 80000001 cycles: 196279680 heartbeat IPC: 0.374366 cumulative IPC: 0.361587 (Simulation time: 0 hr 12 min 15 sec) 
Heartbeat CPU 0 instructions: 90000003 cycles: 220275225 heartbeat IPC: 0.416744 cumulative IPC: 0.367669 (Simulation time: 0 hr 13 min 36 sec) 
Heartbeat CPU 0 instructions: 100000000 cycles: 244149361 heartbeat IPC: 0.418863 cumulative IPC: 0.372731 (Simulation time: 0 hr 14 min 57 sec) 
Heartbeat CPU 0 instructions: 110000001 cycles: 268288445 heartbeat IPC: 0.414266 cumulative IPC: 0.376506 (Simulation time: 0 hr 16 min 22 sec) 
Finished CPU 0 instructions: 100000000 cycles: 265600047 cumulative IPC: 0.376506 (Simulation time: 0 hr 16 min 22 sec) 

ChampSim completed all CPUs

Region of Interest Statistics

CPU 0 cumulative IPC: 0.376506 instructions: 100000000 cycles: 265600047
cpu0_DTLB TOTAL     ACCESS:   19880560  HIT:   19303318  MISS:     577242
cpu0_DTLB LOAD      ACCESS:   14812529  HIT:   14355362  MISS:     457167
cpu0_DTLB RFO       ACCESS:    5068031  HIT:    4947956  MISS:     120075
cpu0_DTLB PREFETCH  ACCESS:          0  HIT:          0  MISS:          0
cpu0_DTLB WRITEBACK ACCESS:          0  HIT:          0  MISS:          0
cpu0_DTLB TRANSLATION ACCESS:          0  HIT:          0  MISS:          0
cpu0_DTLB PREFETCH  REQUESTED:          0  ISSUED:          0  USEFUL:          0  USELESS:          0
cpu0_DTLB AVERAGE MISS LATENCY: 16.7545 cycles
cpu0_ITLB TOTAL     ACCESS:    8264152  HIT:    8264134  MISS:         18
cpu0_ITLB LOAD      ACCESS:    8264152  HIT:    8264134  MISS:         18
cpu0_ITLB RFO       ACCESS:          0  HIT:          0  MISS:          0
cpu0_ITLB PREFETCH  ACCESS:          0  HIT:          0  MISS:          0
cpu0_ITLB WRITEBACK ACCESS:          0  HIT:          0  MISS:          0
cpu0_ITLB TRANSLATION ACCESS:          0  HIT:          0  MISS:          0
cpu0_ITLB PREFETCH  REQUESTED:          0  ISSUED:          0  USEFUL:          0  USELESS:          0
cpu0_ITLB AVERAGE MISS LATENCY: 243.333 cycles
cpu0_L1I TOTAL     ACCESS:    1900009  HIT:    1899152  MISS:        857
cpu0_L1I LOAD      ACCESS:    1900009  HIT:    1899152  MISS:        857
cpu0_L1I RFO       ACCESS:          0  HIT:          0  MISS:          0
cpu0_L1I PREFETCH  ACCESS:          0  HIT:          0  MISS:          0
cpu0_L1I WRITEBACK ACCESS:          0  HIT:          0  MISS:          0
cpu0_L1I TRANSLATION ACCESS:          0  HIT:          0  MISS:          0
cpu0_L1I PREFETCH  REQUESTED:          0  ISSUED:          0  USEFUL:          0  USELESS:          0
cpu0_L1I AVERAGE MISS LATENCY: 298.28 cycles
cpu0_STLB TOTAL     ACCESS:     577260  HIT:     474339  MISS:     102921
cpu0_STLB LOAD      ACCESS:     457185  HIT:     362102  MISS:      95083
cpu0_STLB RFO       ACCESS:     120075  HIT:     112237  MISS:       7838
cpu0_STLB PREFETCH  ACCESS:          0  HIT:          0  MISS:          0
cpu0_STLB WRITEBACK ACCESS:          0  HIT:          0  MISS:          0
cpu0_STLB TRANSLATION ACCESS:          0  HIT:          0  MISS:          0
cpu0_STLB PREFETCH  REQUESTED:          0  ISSUED:          0  USEFUL:          0  USELESS:          0
cpu0_STLB AVERAGE MISS LATENCY: 42.9394 cycles
cpu0_L1D TOTAL     ACCESS:   17086256  HIT:   12769180  MISS:    4317076
cpu0_L1D LOAD      ACCESS:   11096881  HIT:    7498543  MISS:    3598338
cpu0_L1D RFO       ACCESS:    5889311  HIT:    5173217  MISS:     716094
cpu0_L1D PREFETCH  ACCESS:          0  HIT:          0  MISS:          0
cpu0_L1D WRITEBACK ACCESS:          0  HIT:          0  MISS:          0
cpu0_L1D TRANSLATION ACCESS:     100064  HIT:      97420  MISS:       2644
cpu0_L1D PREFETCH  REQUESTED:          0  ISSUED:          0  USEFUL:          0  USELESS:          0
cpu0_L1D AVERAGE MISS LATENCY: 211.933 cycles
cpu0_L2C TOTAL     ACCESS:    6105423  HIT:    2608088  MISS:    3497335
cpu0_L2C LOAD      ACCESS:    3599071  HIT:     717362  MISS:    2881709
cpu0_L2C RFO       ACCESS:     716027  HIT:     101666  MISS:     614361
cpu0_L2C PREFETCH  ACCESS:          0  HIT:          0  MISS:          0
cpu0_L2C WRITEBACK ACCESS:    1787681  HIT:    1787141  MISS:        540
cpu0_L2C TRANSLATION ACCESS:       2644  HIT:       1919  MISS:        725
cpu0_L2C PREFETCH  REQUESTED:          0  ISSUED:          0  USEFUL:          0  USELESS:          0
cpu0_L2C AVERAGE MISS LATENCY: 247.91 cycles
LLC TOTAL     ACCESS:    4876929  HIT:    2350931  MISS:    2525998
LLC LOAD      ACCESS:    2881695  HIT:    1246109  MISS:    1635586
LLC RFO       ACCESS:     614361  HIT:     241273  MISS:     373088
LLC PREFETCH  ACCESS:          0  HIT:          0  MISS:          0
LLC WRITEBACK ACCESS:    1380148  HIT:     863058  MISS:     517090
LLC TRANSLATION ACCESS:        725  HIT:        491  MISS:        234
LLC PREFETCH  REQUESTED:          0  ISSUED:          0  USEFUL:          0  USELESS:          0
LLC AVERAGE MISS LATENCY: 311.92 cycles
Insertion Distribution: 
	LOAD 163501 0 203744 1462064 
	RFO 45083 0 83667 297579 
	PREF 0 0 0 0 
	WRITEBACK 0 0 0 556136 
	 6 0 152 111 
Total Prefetch Downgrades: 0

DRAM Statistics
 CHANNEL 0
 RQ ROW_BUFFER_HIT:     347801  ROW_BUFFER_MISS:    1659385
 DBUS AVG_CONGESTED_CYCLE:    3.94613
 WQ ROW_BUFFER_HIT:      62033  ROW_BUFFER_MISS:     692460  FULL:     990594


CPU 0 Branch Prediction Accuracy: 91.9788% MPKI: 17.5693 Average ROB Occupancy at Mispredict: 27.5189
Branch type MPKI
BRANCH_DIRECT_JUMP: 0.00093
BRANCH_INDIRECT: 0.00028
BRANCH_CONDITIONAL: 17.5659
BRANCH_DIRECT_CALL: 0.00064
BRANCH_INDIRECT_CALL: 0.00043
BRANCH_RETURN: 0.00108

