
*** ChampSim Multicore Out-of-Order Simulator ***

Warmup Instructions: 10000000
Simulation Instructions: 100000000
Number of CPUs: 1
Off-chip DRAM Size: 4 GiB Channels: 1 Width: 64-bit Data Rate: 3200 MT/s

VirtualMemory physical capacity: 8588881920 num_ppages: 2096895
VirtualMemory page size: 4096 log2_page_size: 12

CPU 0 runs /datasets/cs240c-wi22-a00-public/data/Assignment2/GemsFDTD_712B.trace.xz
CPU 0 Bimodal branch predictor
Basic BTB sets: 1024 ways: 8 indirect buffer size: 4096 RAS size: 64
Initialize SRRIP state
Heartbeat CPU 0 instructions: 10000003 cycles: 4479620 heartbeat IPC: 2.23233 cumulative IPC: 2.23233 (Simulation time: 0 hr 1 min 12 sec) 

Warmup complete CPU 0 instructions: 10000003 cycles: 4479620 (Simulation time: 0 hr 1 min 12 sec) 

Heartbeat CPU 0 instructions: 20000003 cycles: 44300726 heartbeat IPC: 0.251123 cumulative IPC: 0.251123 (Simulation time: 0 hr 5 min 43 sec) 
Heartbeat CPU 0 instructions: 30000001 cycles: 84038958 heartbeat IPC: 0.251647 cumulative IPC: 0.251385 (Simulation time: 0 hr 10 min 14 sec) 
Heartbeat CPU 0 instructions: 40000004 cycles: 123926923 heartbeat IPC: 0.250702 cumulative IPC: 0.251157 (Simulation time: 0 hr 14 min 49 sec) 
Heartbeat CPU 0 instructions: 50000004 cycles: 163808145 heartbeat IPC: 0.250745 cumulative IPC: 0.251054 (Simulation time: 0 hr 19 min 22 sec) 
Heartbeat CPU 0 instructions: 60000003 cycles: 203515417 heartbeat IPC: 0.251843 cumulative IPC: 0.251211 (Simulation time: 0 hr 23 min 55 sec) 
Heartbeat CPU 0 instructions: 70000002 cycles: 243382663 heartbeat IPC: 0.250832 cumulative IPC: 0.251148 (Simulation time: 0 hr 28 min 30 sec) 
Heartbeat CPU 0 instructions: 80000000 cycles: 278327111 heartbeat IPC: 0.286168 cumulative IPC: 0.255617 (Simulation time: 0 hr 31 min 40 sec) 
Heartbeat CPU 0 instructions: 90000000 cycles: 313101472 heartbeat IPC: 0.287568 cumulative IPC: 0.259217 (Simulation time: 0 hr 34 min 44 sec) 
Heartbeat CPU 0 instructions: 100000001 cycles: 347844700 heartbeat IPC: 0.287826 cumulative IPC: 0.262112 (Simulation time: 0 hr 37 min 45 sec) 
Heartbeat CPU 0 instructions: 110000002 cycles: 382411505 heartbeat IPC: 0.289295 cumulative IPC: 0.264598 (Simulation time: 0 hr 40 min 49 sec) 
Finished CPU 0 instructions: 100000004 cycles: 377931886 cumulative IPC: 0.264598 (Simulation time: 0 hr 40 min 49 sec) 

ChampSim completed all CPUs

Region of Interest Statistics

CPU 0 cumulative IPC: 0.264598 instructions: 100000004 cycles: 377931886
cpu0_DTLB TOTAL     ACCESS:   29848627  HIT:   29645981  MISS:     202646
cpu0_DTLB LOAD      ACCESS:   23906552  HIT:   23703906  MISS:     202646
cpu0_DTLB RFO       ACCESS:    5942075  HIT:    5942075  MISS:          0
cpu0_DTLB PREFETCH  ACCESS:          0  HIT:          0  MISS:          0
cpu0_DTLB WRITEBACK ACCESS:          0  HIT:          0  MISS:          0
cpu0_DTLB TRANSLATION ACCESS:          0  HIT:          0  MISS:          0
cpu0_DTLB PREFETCH  REQUESTED:          0  ISSUED:          0  USEFUL:          0  USELESS:          0
cpu0_DTLB AVERAGE MISS LATENCY: 158.15 cycles
cpu0_ITLB TOTAL     ACCESS:    1685912  HIT:    1685906  MISS:          6
cpu0_ITLB LOAD      ACCESS:    1685912  HIT:    1685906  MISS:          6
cpu0_ITLB RFO       ACCESS:          0  HIT:          0  MISS:          0
cpu0_ITLB PREFETCH  ACCESS:          0  HIT:          0  MISS:          0
cpu0_ITLB WRITEBACK ACCESS:          0  HIT:          0  MISS:          0
cpu0_ITLB TRANSLATION ACCESS:          0  HIT:          0  MISS:          0
cpu0_ITLB PREFETCH  REQUESTED:          0  ISSUED:          0  USEFUL:          0  USELESS:          0
cpu0_ITLB AVERAGE MISS LATENCY: 307.667 cycles
cpu0_L1I TOTAL     ACCESS:    3165824  HIT:    3165729  MISS:         95
cpu0_L1I LOAD      ACCESS:    3165824  HIT:    3165729  MISS:         95
cpu0_L1I RFO       ACCESS:          0  HIT:          0  MISS:          0
cpu0_L1I PREFETCH  ACCESS:          0  HIT:          0  MISS:          0
cpu0_L1I WRITEBACK ACCESS:          0  HIT:          0  MISS:          0
cpu0_L1I TRANSLATION ACCESS:          0  HIT:          0  MISS:          0
cpu0_L1I PREFETCH  REQUESTED:          0  ISSUED:          0  USEFUL:          0  USELESS:          0
cpu0_L1I AVERAGE MISS LATENCY: 381.347 cycles
cpu0_STLB TOTAL     ACCESS:     202652  HIT:      49544  MISS:     153108
cpu0_STLB LOAD      ACCESS:     202652  HIT:      49544  MISS:     153108
cpu0_STLB RFO       ACCESS:          0  HIT:          0  MISS:          0
cpu0_STLB PREFETCH  ACCESS:          0  HIT:          0  MISS:          0
cpu0_STLB WRITEBACK ACCESS:          0  HIT:          0  MISS:          0
cpu0_STLB TRANSLATION ACCESS:          0  HIT:          0  MISS:          0
cpu0_STLB PREFETCH  REQUESTED:          0  ISSUED:          0  USEFUL:          0  USELESS:          0
cpu0_STLB AVERAGE MISS LATENCY: 197.353 cycles
cpu0_L1D TOTAL     ACCESS:   29710951  HIT:   26362888  MISS:    3348063
cpu0_L1D LOAD      ACCESS:   18479019  HIT:   15133163  MISS:    3345856
cpu0_L1D RFO       ACCESS:   11079382  HIT:   11079362  MISS:         20
cpu0_L1D PREFETCH  ACCESS:          0  HIT:          0  MISS:          0
cpu0_L1D WRITEBACK ACCESS:          0  HIT:          0  MISS:          0
cpu0_L1D TRANSLATION ACCESS:     152550  HIT:     150363  MISS:       2187
cpu0_L1D PREFETCH  REQUESTED:          0  ISSUED:          0  USEFUL:          0  USELESS:          0
cpu0_L1D AVERAGE MISS LATENCY: 687.875 cycles
cpu0_L2C TOTAL     ACCESS:    4725129  HIT:    1561860  MISS:    3163269
cpu0_L2C LOAD      ACCESS:    3345951  HIT:     182794  MISS:    3163157
cpu0_L2C RFO       ACCESS:         20  HIT:          0  MISS:         20
cpu0_L2C PREFETCH  ACCESS:          0  HIT:          0  MISS:          0
cpu0_L2C WRITEBACK ACCESS:    1376971  HIT:    1376967  MISS:          4
cpu0_L2C TRANSLATION ACCESS:       2187  HIT:       2099  MISS:         88
cpu0_L2C PREFETCH  REQUESTED:          0  ISSUED:          0  USEFUL:          0  USELESS:          0
cpu0_L2C AVERAGE MISS LATENCY: 716.404 cycles
LLC TOTAL     ACCESS:    4538777  HIT:     530771  MISS:    4008006
LLC LOAD      ACCESS:    3163157  HIT:     526282  MISS:    2636875
LLC RFO       ACCESS:         20  HIT:          0  MISS:         20
LLC PREFETCH  ACCESS:          0  HIT:          0  MISS:          0
LLC WRITEBACK ACCESS:    1375512  HIT:       4461  MISS:    1371051
LLC TRANSLATION ACCESS:         88  HIT:         28  MISS:         60
LLC PREFETCH  REQUESTED:          0  ISSUED:          0  USEFUL:          0  USELESS:          0
LLC AVERAGE MISS LATENCY: 548.839 cycles
Insertion Distribution: 
	LOAD 611091 0 0 0 0 0 0 0 0 0 0 0 0 0 72929 2266869 
	RFO 0 0 0 0 0 0 0 0 0 0 0 0 0 0 20 0 
	PREF 0 0 0 0 0 0 0 0 0 0 0 0 0 0 0 0 
	WRITEBACK 0 0 0 0 0 0 0 0 0 0 0 0 0 0 0 1498502 
	 19 0 0 0 0 0 0 0 0 0 0 0 0 0 22 37 
Total Prefetch Downgrades: 0

DRAM Statistics
 CHANNEL 0
 RQ ROW_BUFFER_HIT:       8215  ROW_BUFFER_MISS:    2628740
 DBUS AVG_CONGESTED_CYCLE:    3.99782
 WQ ROW_BUFFER_HIT:      22286  ROW_BUFFER_MISS:    1351707  FULL:          0


CPU 0 Branch Prediction Accuracy: 90.9863% MPKI: 1.62566 Average ROB Occupancy at Mispredict: 227.607
Branch type MPKI
BRANCH_DIRECT_JUMP: 5e-05
BRANCH_INDIRECT: 0
BRANCH_CONDITIONAL: 1.62559
BRANCH_DIRECT_CALL: 1e-05
BRANCH_INDIRECT_CALL: 0
BRANCH_RETURN: 1e-05

