
*** ChampSim Multicore Out-of-Order Simulator ***

Warmup Instructions: 10000000
Simulation Instructions: 100000000
Number of CPUs: 1
Off-chip DRAM Size: 4 GiB Channels: 1 Width: 64-bit Data Rate: 3200 MT/s

VirtualMemory physical capacity: 8588881920 num_ppages: 2096895
VirtualMemory page size: 4096 log2_page_size: 12

CPU 0 runs /datasets/cs240c-wi22-a00-public/data/Assignment2/cactusADM_1039B.trace.xz
CPU 0 Bimodal branch predictor
Basic BTB sets: 1024 ways: 8 indirect buffer size: 4096 RAS size: 64
Initialize SRRIP state
Heartbeat CPU 0 instructions: 10000004 cycles: 3647107 heartbeat IPC: 2.7419 cumulative IPC: 2.7419 (Simulation time: 0 hr 1 min 0 sec) 

Warmup complete CPU 0 instructions: 10000004 cycles: 3647107 (Simulation time: 0 hr 1 min 0 sec) 

Heartbeat CPU 0 instructions: 20000004 cycles: 13532500 heartbeat IPC: 1.01159 cumulative IPC: 1.01159 (Simulation time: 0 hr 2 min 53 sec) 
Heartbeat CPU 0 instructions: 30000000 cycles: 22745136 heartbeat IPC: 1.08547 cumulative IPC: 1.04723 (Simulation time: 0 hr 4 min 41 sec) 
Heartbeat CPU 0 instructions: 40000000 cycles: 32147455 heartbeat IPC: 1.06357 cumulative IPC: 1.05262 (Simulation time: 0 hr 6 min 29 sec) 
Heartbeat CPU 0 instructions: 50000004 cycles: 40963284 heartbeat IPC: 1.13432 cumulative IPC: 1.07192 (Simulation time: 0 hr 8 min 13 sec) 
Heartbeat CPU 0 instructions: 60000004 cycles: 47044050 heartbeat IPC: 1.64453 cumulative IPC: 1.15215 (Simulation time: 0 hr 9 min 41 sec) 
Heartbeat CPU 0 instructions: 70000002 cycles: 55548466 heartbeat IPC: 1.17586 cumulative IPC: 1.15604 (Simulation time: 0 hr 11 min 23 sec) 
Heartbeat CPU 0 instructions: 80000004 cycles: 64155055 heartbeat IPC: 1.1619 cumulative IPC: 1.15687 (Simulation time: 0 hr 13 min 5 sec) 
Heartbeat CPU 0 instructions: 90000004 cycles: 72636794 heartbeat IPC: 1.179 cumulative IPC: 1.15959 (Simulation time: 0 hr 14 min 48 sec) 
Heartbeat CPU 0 instructions: 100000000 cycles: 78624666 heartbeat IPC: 1.67004 cumulative IPC: 1.20036 (Simulation time: 0 hr 16 min 16 sec) 
Heartbeat CPU 0 instructions: 110000003 cycles: 87043639 heartbeat IPC: 1.18779 cumulative IPC: 1.19909 (Simulation time: 0 hr 17 min 59 sec) 
Finished CPU 0 instructions: 100000004 cycles: 83396533 cumulative IPC: 1.19909 (Simulation time: 0 hr 17 min 59 sec) 

ChampSim completed all CPUs

Region of Interest Statistics

CPU 0 cumulative IPC: 1.19909 instructions: 100000004 cycles: 83396533
cpu0_DTLB TOTAL     ACCESS:   22817938  HIT:   20768265  MISS:    2049673
cpu0_DTLB LOAD      ACCESS:   18904959  HIT:   17471435  MISS:    1433524
cpu0_DTLB RFO       ACCESS:    3912979  HIT:    3296830  MISS:     616149
cpu0_DTLB PREFETCH  ACCESS:          0  HIT:          0  MISS:          0
cpu0_DTLB WRITEBACK ACCESS:          0  HIT:          0  MISS:          0
cpu0_DTLB TRANSLATION ACCESS:          0  HIT:          0  MISS:          0
cpu0_DTLB PREFETCH  REQUESTED:          0  ISSUED:          0  USEFUL:          0  USELESS:          0
cpu0_DTLB AVERAGE MISS LATENCY: 16.6219 cycles
cpu0_ITLB TOTAL     ACCESS:    1451283  HIT:    1451283  MISS:          0
cpu0_ITLB LOAD      ACCESS:    1451283  HIT:    1451283  MISS:          0
cpu0_ITLB RFO       ACCESS:          0  HIT:          0  MISS:          0
cpu0_ITLB PREFETCH  ACCESS:          0  HIT:          0  MISS:          0
cpu0_ITLB WRITEBACK ACCESS:          0  HIT:          0  MISS:          0
cpu0_ITLB TRANSLATION ACCESS:          0  HIT:          0  MISS:          0
cpu0_ITLB PREFETCH  REQUESTED:          0  ISSUED:          0  USEFUL:          0  USELESS:          0
cpu0_ITLB AVERAGE MISS LATENCY: -nan cycles
cpu0_L1I TOTAL     ACCESS:    8112546  HIT:    8112543  MISS:          3
cpu0_L1I LOAD      ACCESS:    8112546  HIT:    8112543  MISS:          3
cpu0_L1I RFO       ACCESS:          0  HIT:          0  MISS:          0
cpu0_L1I PREFETCH  ACCESS:          0  HIT:          0  MISS:          0
cpu0_L1I WRITEBACK ACCESS:          0  HIT:          0  MISS:          0
cpu0_L1I TRANSLATION ACCESS:          0  HIT:          0  MISS:          0
cpu0_L1I PREFETCH  REQUESTED:          0  ISSUED:          0  USEFUL:          0  USELESS:          0
cpu0_L1I AVERAGE MISS LATENCY: 1094 cycles
cpu0_STLB TOTAL     ACCESS:    2049673  HIT:    1130674  MISS:     918999
cpu0_STLB LOAD      ACCESS:    1433524  HIT:     836386  MISS:     597138
cpu0_STLB RFO       ACCESS:     616149  HIT:     294288  MISS:     321861
cpu0_STLB PREFETCH  ACCESS:          0  HIT:          0  MISS:          0
cpu0_STLB WRITEBACK ACCESS:          0  HIT:          0  MISS:          0
cpu0_STLB TRANSLATION ACCESS:          0  HIT:          0  MISS:          0
cpu0_STLB PREFETCH  REQUESTED:          0  ISSUED:          0  USEFUL:          0  USELESS:          0
cpu0_STLB AVERAGE MISS LATENCY: 16.8397 cycles
cpu0_L1D TOTAL     ACCESS:   37579257  HIT:   36255534  MISS:    1323723
cpu0_L1D LOAD      ACCESS:   25703789  HIT:   24651380  MISS:    1052409
cpu0_L1D RFO       ACCESS:   10957318  HIT:   10691947  MISS:     265371
cpu0_L1D PREFETCH  ACCESS:          0  HIT:          0  MISS:          0
cpu0_L1D WRITEBACK ACCESS:          0  HIT:          0  MISS:          0
cpu0_L1D TRANSLATION ACCESS:     918150  HIT:     912207  MISS:       5943
cpu0_L1D PREFETCH  REQUESTED:          0  ISSUED:          0  USEFUL:          0  USELESS:          0
cpu0_L1D AVERAGE MISS LATENCY: 303.527 cycles
cpu0_L2C TOTAL     ACCESS:    1592994  HIT:     694182  MISS:     898812
cpu0_L2C LOAD      ACCESS:    1052411  HIT:     419488  MISS:     632923
cpu0_L2C RFO       ACCESS:     265371  HIT:          0  MISS:     265371
cpu0_L2C PREFETCH  ACCESS:          0  HIT:          0  MISS:          0
cpu0_L2C WRITEBACK ACCESS:     269269  HIT:     269057  MISS:        212
cpu0_L2C TRANSLATION ACCESS:       5943  HIT:       5637  MISS:        306
cpu0_L2C PREFETCH  REQUESTED:          0  ISSUED:          0  USEFUL:          0  USELESS:          0
cpu0_L2C AVERAGE MISS LATENCY: 430.801 cycles
LLC TOTAL     ACCESS:    1165763  HIT:     348126  MISS:     817637
LLC LOAD      ACCESS:     632923  HIT:     170240  MISS:     462683
LLC RFO       ACCESS:     265371  HIT:      67902  MISS:     197469
LLC PREFETCH  ACCESS:          0  HIT:          0  MISS:          0
LLC WRITEBACK ACCESS:     267163  HIT:     109943  MISS:     157220
LLC TRANSLATION ACCESS:        306  HIT:         41  MISS:        265
LLC PREFETCH  REQUESTED:          0  ISSUED:          0  USEFUL:          0  USELESS:          0
LLC AVERAGE MISS LATENCY: 450.49 cycles
Insertion Distribution: 
	LOAD 37430 0 66518 408811 
	RFO 20298 0 24829 163623 
	PREF 0 0 0 0 
	WRITEBACK 0 0 0 159884 
	 1 0 57 248 
Total Prefetch Downgrades: 0

DRAM Statistics
 CHANNEL 0
 RQ ROW_BUFFER_HIT:       6579  ROW_BUFFER_MISS:     653835
 DBUS AVG_CONGESTED_CYCLE:     3.9757
 WQ ROW_BUFFER_HIT:      16781  ROW_BUFFER_MISS:     200009  FULL:        579


CPU 0 Branch Prediction Accuracy: 97.7479% MPKI: 0.04701 Average ROB Occupancy at Mispredict: 283.964
Branch type MPKI
BRANCH_DIRECT_JUMP: 0
BRANCH_INDIRECT: 0
BRANCH_CONDITIONAL: 0.04701
BRANCH_DIRECT_CALL: 0
BRANCH_INDIRECT_CALL: 0
BRANCH_RETURN: 0

