
*** ChampSim Multicore Out-of-Order Simulator ***

Warmup Instructions: 10000000
Simulation Instructions: 100000000
Number of CPUs: 1
Off-chip DRAM Size: 4 GiB Channels: 1 Width: 64-bit Data Rate: 3200 MT/s

VirtualMemory physical capacity: 8588881920 num_ppages: 2096895
VirtualMemory page size: 4096 log2_page_size: 12

CPU 0 runs /datasets/cs240c-wi22-a00-public/data/Assignment2/mcf_46B.trace.xz
CPU 0 Bimodal branch predictor
Basic BTB sets: 1024 ways: 8 indirect buffer size: 4096 RAS size: 64
Initialize SRRIP state
Heartbeat CPU 0 instructions: 10000002 cycles: 3434370 heartbeat IPC: 2.91174 cumulative IPC: 2.91174 (Simulation time: 0 hr 0 min 51 sec) 

Warmup complete CPU 0 instructions: 10000002 cycles: 3434370 (Simulation time: 0 hr 0 min 51 sec) 

Heartbeat CPU 0 instructions: 20000001 cycles: 107800159 heartbeat IPC: 0.0958168 cumulative IPC: 0.0958168 (Simulation time: 0 hr 4 min 21 sec) 
Heartbeat CPU 0 instructions: 30000004 cycles: 210115118 heartbeat IPC: 0.0977374 cumulative IPC: 0.0967676 (Simulation time: 0 hr 7 min 38 sec) 
Heartbeat CPU 0 instructions: 40000004 cycles: 312995526 heartbeat IPC: 0.0972002 cumulative IPC: 0.0969114 (Simulation time: 0 hr 10 min 51 sec) 
Heartbeat CPU 0 instructions: 50000003 cycles: 413672092 heartbeat IPC: 0.099328 cumulative IPC: 0.0975044 (Simulation time: 0 hr 13 min 59 sec) 
Heartbeat CPU 0 instructions: 60000000 cycles: 520030731 heartbeat IPC: 0.0940215 cumulative IPC: 0.0967874 (Simulation time: 0 hr 17 min 15 sec) 
Heartbeat CPU 0 instructions: 70000004 cycles: 627816807 heartbeat IPC: 0.0927764 cumulative IPC: 0.096095 (Simulation time: 0 hr 20 min 36 sec) 
Heartbeat CPU 0 instructions: 80000003 cycles: 731762134 heartbeat IPC: 0.0962044 cumulative IPC: 0.0961106 (Simulation time: 0 hr 23 min 50 sec) 
Heartbeat CPU 0 instructions: 90000001 cycles: 835266374 heartbeat IPC: 0.0966144 cumulative IPC: 0.0961733 (Simulation time: 0 hr 27 min 3 sec) 
Heartbeat CPU 0 instructions: 100000001 cycles: 940395078 heartbeat IPC: 0.0951215 cumulative IPC: 0.0960553 (Simulation time: 0 hr 30 min 23 sec) 
Heartbeat CPU 0 instructions: 110000002 cycles: 1038923795 heartbeat IPC: 0.101493 cumulative IPC: 0.0965727 (Simulation time: 0 hr 33 min 29 sec) 
Finished CPU 0 instructions: 100000000 cycles: 1035489425 cumulative IPC: 0.0965727 (Simulation time: 0 hr 33 min 29 sec) 

ChampSim completed all CPUs

Region of Interest Statistics

CPU 0 cumulative IPC: 0.0965727 instructions: 100000000 cycles: 1035489425
cpu0_DTLB TOTAL     ACCESS:   23833784  HIT:   14565429  MISS:    9268355
cpu0_DTLB LOAD      ACCESS:   20102778  HIT:   11362216  MISS:    8740562
cpu0_DTLB RFO       ACCESS:    3731006  HIT:    3203213  MISS:     527793
cpu0_DTLB PREFETCH  ACCESS:          0  HIT:          0  MISS:          0
cpu0_DTLB WRITEBACK ACCESS:          0  HIT:          0  MISS:          0
cpu0_DTLB TRANSLATION ACCESS:          0  HIT:          0  MISS:          0
cpu0_DTLB PREFETCH  REQUESTED:          0  ISSUED:          0  USEFUL:          0  USELESS:          0
cpu0_DTLB AVERAGE MISS LATENCY: 11.2673 cycles
cpu0_ITLB TOTAL     ACCESS:   12721395  HIT:   12721395  MISS:          0
cpu0_ITLB LOAD      ACCESS:   12721395  HIT:   12721395  MISS:          0
cpu0_ITLB RFO       ACCESS:          0  HIT:          0  MISS:          0
cpu0_ITLB PREFETCH  ACCESS:          0  HIT:          0  MISS:          0
cpu0_ITLB WRITEBACK ACCESS:          0  HIT:          0  MISS:          0
cpu0_ITLB TRANSLATION ACCESS:          0  HIT:          0  MISS:          0
cpu0_ITLB PREFETCH  REQUESTED:          0  ISSUED:          0  USEFUL:          0  USELESS:          0
cpu0_ITLB AVERAGE MISS LATENCY: -nan cycles
cpu0_L1I TOTAL     ACCESS:         52  HIT:         52  MISS:          0
cpu0_L1I LOAD      ACCESS:         52  HIT:         52  MISS:          0
cpu0_L1I RFO       ACCESS:          0  HIT:          0  MISS:          0
cpu0_L1I PREFETCH  ACCESS:          0  HIT:          0  MISS:          0
cpu0_L1I WRITEBACK ACCESS:          0  HIT:          0  MISS:          0
cpu0_L1I TRANSLATION ACCESS:          0  HIT:          0  MISS:          0
cpu0_L1I PREFETCH  REQUESTED:          0  ISSUED:          0  USEFUL:          0  USELESS:          0
cpu0_L1I AVERAGE MISS LATENCY: -nan cycles
cpu0_STLB TOTAL     ACCESS:    9268355  HIT:    7944788  MISS:    1323567
cpu0_STLB LOAD      ACCESS:    8740562  HIT:    7428099  MISS:    1312463
cpu0_STLB RFO       ACCESS:     527793  HIT:     516689  MISS:      11104
cpu0_STLB PREFETCH  ACCESS:          0  HIT:          0  MISS:          0
cpu0_STLB WRITEBACK ACCESS:          0  HIT:          0  MISS:          0
cpu0_STLB TRANSLATION ACCESS:          0  HIT:          0  MISS:          0
cpu0_STLB PREFETCH  REQUESTED:          0  ISSUED:          0  USEFUL:          0  USELESS:          0
cpu0_STLB AVERAGE MISS LATENCY: 15.807 cycles
cpu0_L1D TOTAL     ACCESS:   28038298  HIT:   16261023  MISS:   11777275
cpu0_L1D LOAD      ACCESS:   21739808  HIT:   10436676  MISS:   11303132
cpu0_L1D RFO       ACCESS:    4979239  HIT:    4680373  MISS:     298866
cpu0_L1D PREFETCH  ACCESS:          0  HIT:          0  MISS:          0
cpu0_L1D WRITEBACK ACCESS:          0  HIT:          0  MISS:          0
cpu0_L1D TRANSLATION ACCESS:    1319251  HIT:    1143974  MISS:     175277
cpu0_L1D PREFETCH  REQUESTED:          0  ISSUED:          0  USEFUL:          0  USELESS:          0
cpu0_L1D AVERAGE MISS LATENCY: 239.243 cycles
cpu0_L2C TOTAL     ACCESS:   14262246  HIT:    5814793  MISS:    8447453
cpu0_L2C LOAD      ACCESS:   11302683  HIT:    3070211  MISS:    8232472
cpu0_L2C RFO       ACCESS:     298854  HIT:     121319  MISS:     177535
cpu0_L2C PREFETCH  ACCESS:          0  HIT:          0  MISS:          0
cpu0_L2C WRITEBACK ACCESS:    2485432  HIT:    2484832  MISS:        600
cpu0_L2C TRANSLATION ACCESS:     175277  HIT:     138431  MISS:      36846
cpu0_L2C PREFETCH  REQUESTED:          0  ISSUED:          0  USEFUL:          0  USELESS:          0
cpu0_L2C AVERAGE MISS LATENCY: 318.106 cycles
LLC TOTAL     ACCESS:   10355508  HIT:    4242186  MISS:    6113322
LLC LOAD      ACCESS:    8232471  HIT:    2964209  MISS:    5268262
LLC RFO       ACCESS:     177535  HIT:     124405  MISS:      53130
LLC PREFETCH  ACCESS:          0  HIT:          0  MISS:          0
LLC WRITEBACK ACCESS:    1908656  HIT:    1120930  MISS:     787726
LLC TRANSLATION ACCESS:      36846  HIT:      32642  MISS:       4204
LLC PREFETCH  REQUESTED:          0  ISSUED:          0  USEFUL:          0  USELESS:          0
LLC AVERAGE MISS LATENCY: 410.546 cycles
Insertion Distribution: 
	LOAD 19813 0 303297 5467178 
	RFO 3481 0 41235 14966 
	PREF 0 0 0 0 
	WRITEBACK 0 0 0 857005 
	 0 0 193 4172 
Total Prefetch Downgrades: 0

DRAM Statistics
 CHANNEL 0
 RQ ROW_BUFFER_HIT:       9698  ROW_BUFFER_MISS:    5315522
 DBUS AVG_CONGESTED_CYCLE:    3.93552
 WQ ROW_BUFFER_HIT:      37212  ROW_BUFFER_MISS:     895348  FULL:          0


CPU 0 Branch Prediction Accuracy: 85.442% MPKI: 39.3219 Average ROB Occupancy at Mispredict: 18.9963
Branch type MPKI
BRANCH_DIRECT_JUMP: 0
BRANCH_INDIRECT: 0
BRANCH_CONDITIONAL: 39.3219
BRANCH_DIRECT_CALL: 0
BRANCH_INDIRECT_CALL: 0
BRANCH_RETURN: 0

