
*** ChampSim Multicore Out-of-Order Simulator ***

Warmup Instructions: 10000000
Simulation Instructions: 100000000
Number of CPUs: 1
Off-chip DRAM Size: 4 GiB Channels: 1 Width: 64-bit Data Rate: 3200 MT/s

VirtualMemory physical capacity: 8588881920 num_ppages: 2096895
VirtualMemory page size: 4096 log2_page_size: 12

CPU 0 runs /datasets/cs240c-wi22-a00-public/data/Assignment2/mcf_46B.trace.xz
CPU 0 Bimodal branch predictor
Basic BTB sets: 1024 ways: 8 indirect buffer size: 4096 RAS size: 64
Initialize SRRIP state
Heartbeat CPU 0 instructions: 10000002 cycles: 3434381 heartbeat IPC: 2.91173 cumulative IPC: 2.91173 (Simulation time: 0 hr 0 min 39 sec) 

Warmup complete CPU 0 instructions: 10000002 cycles: 3434381 (Simulation time: 0 hr 0 min 39 sec) 

Heartbeat CPU 0 instructions: 20000001 cycles: 107459703 heartbeat IPC: 0.0961304 cumulative IPC: 0.0961304 (Simulation time: 0 hr 3 min 24 sec) 
Heartbeat CPU 0 instructions: 30000004 cycles: 210530279 heartbeat IPC: 0.0970209 cumulative IPC: 0.0965736 (Simulation time: 0 hr 6 min 7 sec) 
Heartbeat CPU 0 instructions: 40000004 cycles: 315078276 heartbeat IPC: 0.0956498 cumulative IPC: 0.0962637 (Simulation time: 0 hr 8 min 49 sec) 
Heartbeat CPU 0 instructions: 50000003 cycles: 416719976 heartbeat IPC: 0.0983848 cumulative IPC: 0.0967854 (Simulation time: 0 hr 11 min 25 sec) 
Heartbeat CPU 0 instructions: 60000000 cycles: 523925465 heartbeat IPC: 0.0932788 cumulative IPC: 0.0960631 (Simulation time: 0 hr 14 min 9 sec) 
Heartbeat CPU 0 instructions: 70000004 cycles: 632543666 heartbeat IPC: 0.0920656 cumulative IPC: 0.0953729 (Simulation time: 0 hr 16 min 58 sec) 
Heartbeat CPU 0 instructions: 80000003 cycles: 738010114 heartbeat IPC: 0.0948169 cumulative IPC: 0.0952931 (Simulation time: 0 hr 19 min 42 sec) 
Heartbeat CPU 0 instructions: 90000001 cycles: 842845677 heartbeat IPC: 0.0953875 cumulative IPC: 0.0953049 (Simulation time: 0 hr 22 min 23 sec) 
Heartbeat CPU 0 instructions: 100000001 cycles: 948918309 heartbeat IPC: 0.094275 cumulative IPC: 0.0951893 (Simulation time: 0 hr 25 min 9 sec) 
Heartbeat CPU 0 instructions: 110000002 cycles: 1047239235 heartbeat IPC: 0.101708 cumulative IPC: 0.0958034 (Simulation time: 0 hr 27 min 44 sec) 
Finished CPU 0 instructions: 100000000 cycles: 1043804854 cumulative IPC: 0.0958034 (Simulation time: 0 hr 27 min 44 sec) 

ChampSim completed all CPUs

Region of Interest Statistics

CPU 0 cumulative IPC: 0.0958034 instructions: 100000000 cycles: 1043804854
cpu0_DTLB TOTAL     ACCESS:   23834047  HIT:   14565528  MISS:    9268519
cpu0_DTLB LOAD      ACCESS:   20103039  HIT:   11362304  MISS:    8740735
cpu0_DTLB RFO       ACCESS:    3731008  HIT:    3203224  MISS:     527784
cpu0_DTLB PREFETCH  ACCESS:          0  HIT:          0  MISS:          0
cpu0_DTLB WRITEBACK ACCESS:          0  HIT:          0  MISS:          0
cpu0_DTLB TRANSLATION ACCESS:          0  HIT:          0  MISS:          0
cpu0_DTLB PREFETCH  REQUESTED:          0  ISSUED:          0  USEFUL:          0  USELESS:          0
cpu0_DTLB AVERAGE MISS LATENCY: 11.5812 cycles
cpu0_ITLB TOTAL     ACCESS:   12719362  HIT:   12719362  MISS:          0
cpu0_ITLB LOAD      ACCESS:   12719362  HIT:   12719362  MISS:          0
cpu0_ITLB RFO       ACCESS:          0  HIT:          0  MISS:          0
cpu0_ITLB PREFETCH  ACCESS:          0  HIT:          0  MISS:          0
cpu0_ITLB WRITEBACK ACCESS:          0  HIT:          0  MISS:          0
cpu0_ITLB TRANSLATION ACCESS:          0  HIT:          0  MISS:          0
cpu0_ITLB PREFETCH  REQUESTED:          0  ISSUED:          0  USEFUL:          0  USELESS:          0
cpu0_ITLB AVERAGE MISS LATENCY: -nan cycles
cpu0_L1I TOTAL     ACCESS:         52  HIT:         52  MISS:          0
cpu0_L1I LOAD      ACCESS:         52  HIT:         52  MISS:          0
cpu0_L1I RFO       ACCESS:          0  HIT:          0  MISS:          0
cpu0_L1I PREFETCH  ACCESS:          0  HIT:          0  MISS:          0
cpu0_L1I WRITEBACK ACCESS:          0  HIT:          0  MISS:          0
cpu0_L1I TRANSLATION ACCESS:          0  HIT:          0  MISS:          0
cpu0_L1I PREFETCH  REQUESTED:          0  ISSUED:          0  USEFUL:          0  USELESS:          0
cpu0_L1I AVERAGE MISS LATENCY: -nan cycles
cpu0_STLB TOTAL     ACCESS:    9268519  HIT:    7944951  MISS:    1323568
cpu0_STLB LOAD      ACCESS:    8740735  HIT:    7428270  MISS:    1312465
cpu0_STLB RFO       ACCESS:     527784  HIT:     516681  MISS:      11103
cpu0_STLB PREFETCH  ACCESS:          0  HIT:          0  MISS:          0
cpu0_STLB WRITEBACK ACCESS:          0  HIT:          0  MISS:          0
cpu0_STLB TRANSLATION ACCESS:          0  HIT:          0  MISS:          0
cpu0_STLB PREFETCH  REQUESTED:          0  ISSUED:          0  USEFUL:          0  USELESS:          0
cpu0_STLB AVERAGE MISS LATENCY: 18.0051 cycles
cpu0_L1D TOTAL     ACCESS:   28037463  HIT:   16260153  MISS:   11777310
cpu0_L1D LOAD      ACCESS:   21738981  HIT:   10435836  MISS:   11303145
cpu0_L1D RFO       ACCESS:    4979244  HIT:    4680380  MISS:     298864
cpu0_L1D PREFETCH  ACCESS:          0  HIT:          0  MISS:          0
cpu0_L1D WRITEBACK ACCESS:          0  HIT:          0  MISS:          0
cpu0_L1D TRANSLATION ACCESS:    1319238  HIT:    1143937  MISS:     175301
cpu0_L1D PREFETCH  REQUESTED:          0  ISSUED:          0  USEFUL:          0  USELESS:          0
cpu0_L1D AVERAGE MISS LATENCY: 241.995 cycles
cpu0_L2C TOTAL     ACCESS:   14261794  HIT:    5814360  MISS:    8447434
cpu0_L2C LOAD      ACCESS:   11302692  HIT:    3070244  MISS:    8232448
cpu0_L2C RFO       ACCESS:     298852  HIT:     121319  MISS:     177533
cpu0_L2C PREFETCH  ACCESS:          0  HIT:          0  MISS:          0
cpu0_L2C WRITEBACK ACCESS:    2484949  HIT:    2484350  MISS:        599
cpu0_L2C TRANSLATION ACCESS:     175301  HIT:     138447  MISS:      36854
cpu0_L2C PREFETCH  REQUESTED:          0  ISSUED:          0  USEFUL:          0  USELESS:          0
cpu0_L2C AVERAGE MISS LATENCY: 321.944 cycles
LLC TOTAL     ACCESS:   10355021  HIT:    4210964  MISS:    6144057
LLC LOAD      ACCESS:    8232447  HIT:    2910706  MISS:    5321741
LLC RFO       ACCESS:     177533  HIT:     113694  MISS:      63839
LLC PREFETCH  ACCESS:          0  HIT:          0  MISS:          0
LLC WRITEBACK ACCESS:    1908187  HIT:    1159290  MISS:     748897
LLC TRANSLATION ACCESS:      36854  HIT:      27274  MISS:       9580
LLC PREFETCH  REQUESTED:          0  ISSUED:          0  USEFUL:          0  USELESS:          0
LLC AVERAGE MISS LATENCY: 413.769 cycles
Insertion Distribution: 
	LOAD 273444 0 121549 5445704 
	RFO 45459 0 16316 9366 
	PREF 0 0 0 0 
	WRITEBACK 0 0 0 814359 
	 3 0 194 9898 
Total Prefetch Downgrades: 0

DRAM Statistics
 CHANNEL 0
 RQ ROW_BUFFER_HIT:       9643  ROW_BUFFER_MISS:    5384603
 DBUS AVG_CONGESTED_CYCLE:     3.9393
 WQ ROW_BUFFER_HIT:      34301  ROW_BUFFER_MISS:     994571  FULL:          0


CPU 0 Branch Prediction Accuracy: 85.442% MPKI: 39.3219 Average ROB Occupancy at Mispredict: 18.9778
Branch type MPKI
BRANCH_DIRECT_JUMP: 0
BRANCH_INDIRECT: 0
BRANCH_CONDITIONAL: 39.3219
BRANCH_DIRECT_CALL: 0
BRANCH_INDIRECT_CALL: 0
BRANCH_RETURN: 0

