
*** ChampSim Multicore Out-of-Order Simulator ***

Warmup Instructions: 10000000
Simulation Instructions: 100000000
Number of CPUs: 1
Off-chip DRAM Size: 4 GiB Channels: 1 Width: 64-bit Data Rate: 3200 MT/s

VirtualMemory physical capacity: 8588881920 num_ppages: 2096895
VirtualMemory page size: 4096 log2_page_size: 12

CPU 0 runs /datasets/cs240c-wi22-a00-public/data/Assignment2/zeusmp_100B.trace.xz
CPU 0 Bimodal branch predictor
Basic BTB sets: 1024 ways: 8 indirect buffer size: 4096 RAS size: 64
Initialize SRRIP state
Heartbeat CPU 0 instructions: 10000000 cycles: 2533557 heartbeat IPC: 3.94702 cumulative IPC: 3.94702 (Simulation time: 0 hr 0 min 31 sec) 

Warmup complete CPU 0 instructions: 10000004 cycles: 2533558 (Simulation time: 0 hr 0 min 31 sec) 

Heartbeat CPU 0 instructions: 20000003 cycles: 8022349 heartbeat IPC: 1.8219 cumulative IPC: 1.82189 (Simulation time: 0 hr 1 min 28 sec) 
Heartbeat CPU 0 instructions: 30000000 cycles: 13943068 heartbeat IPC: 1.68898 cumulative IPC: 1.75292 (Simulation time: 0 hr 2 min 29 sec) 
Heartbeat CPU 0 instructions: 40000004 cycles: 19871970 heartbeat IPC: 1.68665 cumulative IPC: 1.73026 (Simulation time: 0 hr 3 min 28 sec) 
Heartbeat CPU 0 instructions: 50000001 cycles: 25787139 heartbeat IPC: 1.69057 cumulative IPC: 1.72017 (Simulation time: 0 hr 4 min 27 sec) 
Heartbeat CPU 0 instructions: 60000004 cycles: 31722603 heartbeat IPC: 1.68479 cumulative IPC: 1.71297 (Simulation time: 0 hr 5 min 24 sec) 
Heartbeat CPU 0 instructions: 70000001 cycles: 37613877 heartbeat IPC: 1.69743 cumulative IPC: 1.71036 (Simulation time: 0 hr 6 min 22 sec) 
Heartbeat CPU 0 instructions: 80000001 cycles: 43533797 heartbeat IPC: 1.68921 cumulative IPC: 1.70731 (Simulation time: 0 hr 7 min 20 sec) 
Heartbeat CPU 0 instructions: 90000000 cycles: 49461558 heartbeat IPC: 1.68698 cumulative IPC: 1.70474 (Simulation time: 0 hr 8 min 19 sec) 
Heartbeat CPU 0 instructions: 100000000 cycles: 55355970 heartbeat IPC: 1.69652 cumulative IPC: 1.70382 (Simulation time: 0 hr 9 min 17 sec) 
Heartbeat CPU 0 instructions: 110000003 cycles: 61283155 heartbeat IPC: 1.68714 cumulative IPC: 1.70214 (Simulation time: 0 hr 10 min 14 sec) 
Finished CPU 0 instructions: 100000004 cycles: 58749598 cumulative IPC: 1.70214 (Simulation time: 0 hr 10 min 14 sec) 

ChampSim completed all CPUs

Region of Interest Statistics

CPU 0 cumulative IPC: 1.70214 instructions: 100000004 cycles: 58749598
cpu0_DTLB TOTAL     ACCESS:   16439959  HIT:   12274833  MISS:    4165126
cpu0_DTLB LOAD      ACCESS:   11959907  HIT:    9302614  MISS:    2657293
cpu0_DTLB RFO       ACCESS:    4480052  HIT:    2972219  MISS:    1507833
cpu0_DTLB PREFETCH  ACCESS:          0  HIT:          0  MISS:          0
cpu0_DTLB WRITEBACK ACCESS:          0  HIT:          0  MISS:          0
cpu0_DTLB TRANSLATION ACCESS:          0  HIT:          0  MISS:          0
cpu0_DTLB PREFETCH  REQUESTED:          0  ISSUED:          0  USEFUL:          0  USELESS:          0
cpu0_DTLB AVERAGE MISS LATENCY: 10.3982 cycles
cpu0_ITLB TOTAL     ACCESS:    2227426  HIT:    2227425  MISS:          1
cpu0_ITLB LOAD      ACCESS:    2227426  HIT:    2227425  MISS:          1
cpu0_ITLB RFO       ACCESS:          0  HIT:          0  MISS:          0
cpu0_ITLB PREFETCH  ACCESS:          0  HIT:          0  MISS:          0
cpu0_ITLB WRITEBACK ACCESS:          0  HIT:          0  MISS:          0
cpu0_ITLB TRANSLATION ACCESS:          0  HIT:          0  MISS:          0
cpu0_ITLB PREFETCH  REQUESTED:          0  ISSUED:          0  USEFUL:          0  USELESS:          0
cpu0_ITLB AVERAGE MISS LATENCY: 412 cycles
cpu0_L1I TOTAL     ACCESS:    3117818  HIT:    3117767  MISS:         51
cpu0_L1I LOAD      ACCESS:    3117818  HIT:    3117767  MISS:         51
cpu0_L1I RFO       ACCESS:          0  HIT:          0  MISS:          0
cpu0_L1I PREFETCH  ACCESS:          0  HIT:          0  MISS:          0
cpu0_L1I WRITEBACK ACCESS:          0  HIT:          0  MISS:          0
cpu0_L1I TRANSLATION ACCESS:          0  HIT:          0  MISS:          0
cpu0_L1I PREFETCH  REQUESTED:          0  ISSUED:          0  USEFUL:          0  USELESS:          0
cpu0_L1I AVERAGE MISS LATENCY: 316.137 cycles
cpu0_STLB TOTAL     ACCESS:    4165127  HIT:    4156688  MISS:       8439
cpu0_STLB LOAD      ACCESS:    2657294  HIT:    2652131  MISS:       5163
cpu0_STLB RFO       ACCESS:    1507833  HIT:    1504557  MISS:       3276
cpu0_STLB PREFETCH  ACCESS:          0  HIT:          0  MISS:          0
cpu0_STLB WRITEBACK ACCESS:          0  HIT:          0  MISS:          0
cpu0_STLB TRANSLATION ACCESS:          0  HIT:          0  MISS:          0
cpu0_STLB PREFETCH  REQUESTED:          0  ISSUED:          0  USEFUL:          0  USELESS:          0
cpu0_STLB AVERAGE MISS LATENCY: 557.842 cycles
cpu0_L1D TOTAL     ACCESS:   19016558  HIT:   13987583  MISS:    5028975
cpu0_L1D LOAD      ACCESS:   12121508  HIT:    8892267  MISS:    3229241
cpu0_L1D RFO       ACCESS:    6886714  HIT:    5094677  MISS:    1792037
cpu0_L1D PREFETCH  ACCESS:          0  HIT:          0  MISS:          0
cpu0_L1D WRITEBACK ACCESS:          0  HIT:          0  MISS:          0
cpu0_L1D TRANSLATION ACCESS:       8336  HIT:        639  MISS:       7697
cpu0_L1D PREFETCH  REQUESTED:          0  ISSUED:          0  USEFUL:          0  USELESS:          0
cpu0_L1D AVERAGE MISS LATENCY: 87.1426 cycles
cpu0_L2C TOTAL     ACCESS:    6849704  HIT:    6262179  MISS:     587525
cpu0_L2C LOAD      ACCESS:    3229019  HIT:    2835036  MISS:     393983
cpu0_L2C RFO       ACCESS:    1790672  HIT:    1597410  MISS:     193262
cpu0_L2C PREFETCH  ACCESS:          0  HIT:          0  MISS:          0
cpu0_L2C WRITEBACK ACCESS:    1822316  HIT:    1822043  MISS:        273
cpu0_L2C TRANSLATION ACCESS:       7697  HIT:       7690  MISS:          7
cpu0_L2C PREFETCH  REQUESTED:          0  ISSUED:          0  USEFUL:          0  USELESS:          0
cpu0_L2C AVERAGE MISS LATENCY: 650.924 cycles
LLC TOTAL     ACCESS:     780573  HIT:      89049  MISS:     691524
LLC LOAD      ACCESS:     393983  HIT:      81424  MISS:     312559
LLC RFO       ACCESS:     193262  HIT:          0  MISS:     193262
LLC PREFETCH  ACCESS:          0  HIT:          0  MISS:          0
LLC WRITEBACK ACCESS:     193321  HIT:       7623  MISS:     185698
LLC TRANSLATION ACCESS:          7  HIT:          2  MISS:          5
LLC PREFETCH  REQUESTED:          0  ISSUED:          0  USEFUL:          0  USELESS:          0
LLC AVERAGE MISS LATENCY: 535.197 cycles
Insertion Distribution: 
	LOAD 0 0 128209 213456 
	RFO 0 0 12836 191903 
	PREF 0 0 0 0 
	WRITEBACK 0 0 0 186781 
	 0 0 25 2 
Total Prefetch Downgrades: 0

DRAM Statistics
 CHANNEL 0
 RQ ROW_BUFFER_HIT:        170  ROW_BUFFER_MISS:     505656
 DBUS AVG_CONGESTED_CYCLE:    3.99891
 WQ ROW_BUFFER_HIT:        361  ROW_BUFFER_MISS:     199906  FULL:          0


CPU 0 Branch Prediction Accuracy: 99.0158% MPKI: 0.52371 Average ROB Occupancy at Mispredict: 235.863
Branch type MPKI
BRANCH_DIRECT_JUMP: 1e-05
BRANCH_INDIRECT: 0
BRANCH_CONDITIONAL: 0.5237
BRANCH_DIRECT_CALL: 0
BRANCH_INDIRECT_CALL: 0
BRANCH_RETURN: 0

