
*** ChampSim Multicore Out-of-Order Simulator ***

Warmup Instructions: 10000000
Simulation Instructions: 100000000
Number of CPUs: 1
Off-chip DRAM Size: 4 GiB Channels: 1 Width: 64-bit Data Rate: 3200 MT/s

VirtualMemory physical capacity: 8588881920 num_ppages: 2096895
VirtualMemory page size: 4096 log2_page_size: 12

CPU 0 runs /datasets/cs240c-wi22-a00-public/data/Assignment2/sphinx3_1339B.trace.xz
CPU 0 Bimodal branch predictor
Basic BTB sets: 1024 ways: 8 indirect buffer size: 4096 RAS size: 64
Initialize SRRIP state
Heartbeat CPU 0 instructions: 10000000 cycles: 2584401 heartbeat IPC: 3.86937 cumulative IPC: 3.86937 (Simulation time: 0 hr 0 min 29 sec) 

Warmup complete CPU 0 instructions: 10000004 cycles: 2584402 (Simulation time: 0 hr 0 min 29 sec) 

Heartbeat CPU 0 instructions: 20000003 cycles: 10302914 heartbeat IPC: 1.29559 cumulative IPC: 1.29559 (Simulation time: 0 hr 1 min 16 sec) 
Heartbeat CPU 0 instructions: 30000001 cycles: 17524459 heartbeat IPC: 1.38475 cumulative IPC: 1.33868 (Simulation time: 0 hr 2 min 1 sec) 
Heartbeat CPU 0 instructions: 40000002 cycles: 25477762 heartbeat IPC: 1.25734 cumulative IPC: 1.31042 (Simulation time: 0 hr 2 min 49 sec) 
Heartbeat CPU 0 instructions: 50000004 cycles: 33171574 heartbeat IPC: 1.29975 cumulative IPC: 1.30774 (Simulation time: 0 hr 3 min 36 sec) 
Heartbeat CPU 0 instructions: 60000003 cycles: 40784263 heartbeat IPC: 1.3136 cumulative IPC: 1.30891 (Simulation time: 0 hr 4 min 23 sec) 
Heartbeat CPU 0 instructions: 70000004 cycles: 48500333 heartbeat IPC: 1.296 cumulative IPC: 1.30674 (Simulation time: 0 hr 5 min 11 sec) 
Heartbeat CPU 0 instructions: 80000001 cycles: 56112715 heartbeat IPC: 1.31365 cumulative IPC: 1.30772 (Simulation time: 0 hr 5 min 58 sec) 
Heartbeat CPU 0 instructions: 90000001 cycles: 63637027 heartbeat IPC: 1.32903 cumulative IPC: 1.31034 (Simulation time: 0 hr 6 min 46 sec) 
Heartbeat CPU 0 instructions: 100000002 cycles: 71429640 heartbeat IPC: 1.28327 cumulative IPC: 1.30728 (Simulation time: 0 hr 7 min 34 sec) 
Heartbeat CPU 0 instructions: 110000000 cycles: 80003313 heartbeat IPC: 1.16636 cumulative IPC: 1.29167 (Simulation time: 0 hr 8 min 23 sec) 
Finished CPU 0 instructions: 100000001 cycles: 77418912 cumulative IPC: 1.29167 (Simulation time: 0 hr 8 min 23 sec) 

ChampSim completed all CPUs

Region of Interest Statistics

CPU 0 cumulative IPC: 1.29167 instructions: 100000001 cycles: 77418912
cpu0_DTLB TOTAL     ACCESS:   16172399  HIT:   16063648  MISS:     108751
cpu0_DTLB LOAD      ACCESS:   15014281  HIT:   14911465  MISS:     102816
cpu0_DTLB RFO       ACCESS:    1158118  HIT:    1152183  MISS:       5935
cpu0_DTLB PREFETCH  ACCESS:          0  HIT:          0  MISS:          0
cpu0_DTLB WRITEBACK ACCESS:          0  HIT:          0  MISS:          0
cpu0_DTLB TRANSLATION ACCESS:          0  HIT:          0  MISS:          0
cpu0_DTLB PREFETCH  REQUESTED:          0  ISSUED:          0  USEFUL:          0  USELESS:          0
cpu0_DTLB AVERAGE MISS LATENCY: 13.2519 cycles
cpu0_ITLB TOTAL     ACCESS:    9604617  HIT:    9604575  MISS:         42
cpu0_ITLB LOAD      ACCESS:    9604617  HIT:    9604575  MISS:         42
cpu0_ITLB RFO       ACCESS:          0  HIT:          0  MISS:          0
cpu0_ITLB PREFETCH  ACCESS:          0  HIT:          0  MISS:          0
cpu0_ITLB WRITEBACK ACCESS:          0  HIT:          0  MISS:          0
cpu0_ITLB TRANSLATION ACCESS:          0  HIT:          0  MISS:          0
cpu0_ITLB PREFETCH  REQUESTED:          0  ISSUED:          0  USEFUL:          0  USELESS:          0
cpu0_ITLB AVERAGE MISS LATENCY: 122.881 cycles
cpu0_L1I TOTAL     ACCESS:     299435  HIT:     297864  MISS:       1571
cpu0_L1I LOAD      ACCESS:     299435  HIT:     297864  MISS:       1571
cpu0_L1I RFO       ACCESS:          0  HIT:          0  MISS:          0
cpu0_L1I PREFETCH  ACCESS:          0  HIT:          0  MISS:          0
cpu0_L1I WRITEBACK ACCESS:          0  HIT:          0  MISS:          0
cpu0_L1I TRANSLATION ACCESS:          0  HIT:          0  MISS:          0
cpu0_L1I PREFETCH  REQUESTED:          0  ISSUED:          0  USEFUL:          0  USELESS:          0
cpu0_L1I AVERAGE MISS LATENCY: 171.432 cycles
cpu0_STLB TOTAL     ACCESS:     108793  HIT:      69677  MISS:      39116
cpu0_STLB LOAD      ACCESS:     102858  HIT:      64827  MISS:      38031
cpu0_STLB RFO       ACCESS:       5935  HIT:       4850  MISS:       1085
cpu0_STLB PREFETCH  ACCESS:          0  HIT:          0  MISS:          0
cpu0_STLB WRITEBACK ACCESS:          0  HIT:          0  MISS:          0
cpu0_STLB TRANSLATION ACCESS:          0  HIT:          0  MISS:          0
cpu0_STLB PREFETCH  REQUESTED:          0  ISSUED:          0  USEFUL:          0  USELESS:          0
cpu0_STLB AVERAGE MISS LATENCY: 11.7993 cycles
cpu0_L1D TOTAL     ACCESS:   12050102  HIT:   10550898  MISS:    1499204
cpu0_L1D LOAD      ACCESS:   10249632  HIT:    8871530  MISS:    1378102
cpu0_L1D RFO       ACCESS:    1763493  HIT:    1642893  MISS:     120600
cpu0_L1D PREFETCH  ACCESS:          0  HIT:          0  MISS:          0
cpu0_L1D WRITEBACK ACCESS:          0  HIT:          0  MISS:          0
cpu0_L1D TRANSLATION ACCESS:      36977  HIT:      36475  MISS:        502
cpu0_L1D PREFETCH  REQUESTED:          0  ISSUED:          0  USEFUL:          0  USELESS:          0
cpu0_L1D AVERAGE MISS LATENCY: 87.8501 cycles
cpu0_L2C TOTAL     ACCESS:    1642891  HIT:     358351  MISS:    1284540
cpu0_L2C LOAD      ACCESS:    1379663  HIT:     204312  MISS:    1175351
cpu0_L2C RFO       ACCESS:     120597  HIT:      11967  MISS:     108630
cpu0_L2C PREFETCH  ACCESS:          0  HIT:          0  MISS:          0
cpu0_L2C WRITEBACK ACCESS:     142129  HIT:     141858  MISS:        271
cpu0_L2C TRANSLATION ACCESS:        502  HIT:        214  MISS:        288
cpu0_L2C PREFETCH  REQUESTED:          0  ISSUED:          0  USEFUL:          0  USELESS:          0
cpu0_L2C AVERAGE MISS LATENCY: 89.8497 cycles
LLC TOTAL     ACCESS:    1413646  HIT:     925970  MISS:     487676
LLC LOAD      ACCESS:    1175343  HIT:     709212  MISS:     466131
LLC RFO       ACCESS:     108630  HIT:      97590  MISS:      11040
LLC PREFETCH  ACCESS:          0  HIT:          0  MISS:          0
LLC WRITEBACK ACCESS:     129385  HIT:     118894  MISS:      10491
LLC TRANSLATION ACCESS:        288  HIT:        274  MISS:         14
LLC PREFETCH  REQUESTED:          0  ISSUED:          0  USEFUL:          0  USELESS:          0
LLC AVERAGE MISS LATENCY: 181.358 cycles
Insertion Distribution: 
	LOAD 1436 0 86214 467104 
	RFO 40 0 6496 9445 
	PREF 0 0 0 0 
	WRITEBACK 0 0 0 10772 
	 0 0 23 11 
Total Prefetch Downgrades: 0

DRAM Statistics
 CHANNEL 0
 RQ ROW_BUFFER_HIT:      59612  ROW_BUFFER_MISS:     417465
 DBUS AVG_CONGESTED_CYCLE:    3.75754
 WQ ROW_BUFFER_HIT:       7086  ROW_BUFFER_MISS:       9457  FULL:          0


CPU 0 Branch Prediction Accuracy: 92.5867% MPKI: 6.65069 Average ROB Occupancy at Mispredict: 176.687
Branch type MPKI
BRANCH_DIRECT_JUMP: 0.00112
BRANCH_INDIRECT: 0
BRANCH_CONDITIONAL: 6.64811
BRANCH_DIRECT_CALL: 0.00071
BRANCH_INDIRECT_CALL: 3e-05
BRANCH_RETURN: 0.00072

