
*** ChampSim Multicore Out-of-Order Simulator ***

Warmup Instructions: 10000000
Simulation Instructions: 100000000
Number of CPUs: 1
Off-chip DRAM Size: 4 GiB Channels: 1 Width: 64-bit Data Rate: 3200 MT/s

VirtualMemory physical capacity: 8588881920 num_ppages: 2096895
VirtualMemory page size: 4096 log2_page_size: 12

CPU 0 runs /datasets/cs240c-wi22-a00-public/data/Assignment2/libquantum_1735B.trace.xz
CPU 0 Bimodal branch predictor
Basic BTB sets: 1024 ways: 8 indirect buffer size: 4096 RAS size: 64
Initialize SRRIP state
Heartbeat CPU 0 instructions: 10000002 cycles: 2500058 heartbeat IPC: 3.99991 cumulative IPC: 3.99991 (Simulation time: 0 hr 0 min 25 sec) 

Warmup complete CPU 0 instructions: 10000002 cycles: 2500058 (Simulation time: 0 hr 0 min 25 sec) 

Heartbeat CPU 0 instructions: 20000003 cycles: 36696351 heartbeat IPC: 0.292429 cumulative IPC: 0.292429 (Simulation time: 0 hr 1 min 43 sec) 
Heartbeat CPU 0 instructions: 30000001 cycles: 69791366 heartbeat IPC: 0.30216 cumulative IPC: 0.297215 (Simulation time: 0 hr 2 min 58 sec) 
Heartbeat CPU 0 instructions: 40000003 cycles: 109118478 heartbeat IPC: 0.254278 cumulative IPC: 0.281377 (Simulation time: 0 hr 4 min 19 sec) 
Heartbeat CPU 0 instructions: 50000002 cycles: 142490783 heartbeat IPC: 0.29965 cumulative IPC: 0.285733 (Simulation time: 0 hr 5 min 33 sec) 
Heartbeat CPU 0 instructions: 60000001 cycles: 147512729 heartbeat IPC: 1.99126 cumulative IPC: 0.344797 (Simulation time: 0 hr 6 min 22 sec) 
Heartbeat CPU 0 instructions: 70000002 cycles: 152490151 heartbeat IPC: 2.00907 cumulative IPC: 0.400026 (Simulation time: 0 hr 7 min 11 sec) 
Heartbeat CPU 0 instructions: 80000000 cycles: 191046591 heartbeat IPC: 0.25936 cumulative IPC: 0.371261 (Simulation time: 0 hr 8 min 31 sec) 
Heartbeat CPU 0 instructions: 90000000 cycles: 224023537 heartbeat IPC: 0.303242 cumulative IPC: 0.361136 (Simulation time: 0 hr 9 min 41 sec) 
Heartbeat CPU 0 instructions: 100000000 cycles: 280980720 heartbeat IPC: 0.17557 cumulative IPC: 0.323182 (Simulation time: 0 hr 11 min 21 sec) 
Heartbeat CPU 0 instructions: 110000003 cycles: 315057996 heartbeat IPC: 0.293451 cumulative IPC: 0.319941 (Simulation time: 0 hr 12 min 36 sec) 
Finished CPU 0 instructions: 100000001 cycles: 312557938 cumulative IPC: 0.319941 (Simulation time: 0 hr 12 min 36 sec) 

ChampSim completed all CPUs

Region of Interest Statistics

CPU 0 cumulative IPC: 0.319941 instructions: 100000001 cycles: 312557938
cpu0_DTLB TOTAL     ACCESS:    9956586  HIT:    9912983  MISS:      43603
cpu0_DTLB LOAD      ACCESS:    8323500  HIT:    8279902  MISS:      43598
cpu0_DTLB RFO       ACCESS:    1633086  HIT:    1633081  MISS:          5
cpu0_DTLB PREFETCH  ACCESS:          0  HIT:          0  MISS:          0
cpu0_DTLB WRITEBACK ACCESS:          0  HIT:          0  MISS:          0
cpu0_DTLB TRANSLATION ACCESS:          0  HIT:          0  MISS:          0
cpu0_DTLB PREFETCH  REQUESTED:          0  ISSUED:          0  USEFUL:          0  USELESS:          0
cpu0_DTLB AVERAGE MISS LATENCY: 35.7632 cycles
cpu0_ITLB TOTAL     ACCESS:    4579306  HIT:    4579306  MISS:          0
cpu0_ITLB LOAD      ACCESS:    4579306  HIT:    4579306  MISS:          0
cpu0_ITLB RFO       ACCESS:          0  HIT:          0  MISS:          0
cpu0_ITLB PREFETCH  ACCESS:          0  HIT:          0  MISS:          0
cpu0_ITLB WRITEBACK ACCESS:          0  HIT:          0  MISS:          0
cpu0_ITLB TRANSLATION ACCESS:          0  HIT:          0  MISS:          0
cpu0_ITLB PREFETCH  REQUESTED:          0  ISSUED:          0  USEFUL:          0  USELESS:          0
cpu0_ITLB AVERAGE MISS LATENCY: -nan cycles
cpu0_L1I TOTAL     ACCESS:         20  HIT:         11  MISS:          9
cpu0_L1I LOAD      ACCESS:         20  HIT:         11  MISS:          9
cpu0_L1I RFO       ACCESS:          0  HIT:          0  MISS:          0
cpu0_L1I PREFETCH  ACCESS:          0  HIT:          0  MISS:          0
cpu0_L1I WRITEBACK ACCESS:          0  HIT:          0  MISS:          0
cpu0_L1I TRANSLATION ACCESS:          0  HIT:          0  MISS:          0
cpu0_L1I PREFETCH  REQUESTED:          0  ISSUED:          0  USEFUL:          0  USELESS:          0
cpu0_L1I AVERAGE MISS LATENCY: 196.444 cycles
cpu0_STLB TOTAL     ACCESS:      43603  HIT:          0  MISS:      43603
cpu0_STLB LOAD      ACCESS:      43598  HIT:          0  MISS:      43598
cpu0_STLB RFO       ACCESS:          5  HIT:          0  MISS:          5
cpu0_STLB PREFETCH  ACCESS:          0  HIT:          0  MISS:          0
cpu0_STLB WRITEBACK ACCESS:          0  HIT:          0  MISS:          0
cpu0_STLB TRANSLATION ACCESS:          0  HIT:          0  MISS:          0
cpu0_STLB PREFETCH  REQUESTED:          0  ISSUED:          0  USEFUL:          0  USELESS:          0
cpu0_STLB AVERAGE MISS LATENCY: 26.7632 cycles
cpu0_L1D TOTAL     ACCESS:    6545340  HIT:    3755907  MISS:    2789433
cpu0_L1D LOAD      ACCESS:    4613232  HIT:    1823849  MISS:    2789383
cpu0_L1D RFO       ACCESS:    1888505  HIT:    1888485  MISS:         20
cpu0_L1D PREFETCH  ACCESS:          0  HIT:          0  MISS:          0
cpu0_L1D WRITEBACK ACCESS:          0  HIT:          0  MISS:          0
cpu0_L1D TRANSLATION ACCESS:      43603  HIT:      43573  MISS:         30
cpu0_L1D PREFETCH  REQUESTED:          0  ISSUED:          0  USEFUL:          0  USELESS:          0
cpu0_L1D AVERAGE MISS LATENCY: 157.771 cycles
cpu0_L2C TOTAL     ACCESS:    3804021  HIT:    1014579  MISS:    2789442
cpu0_L2C LOAD      ACCESS:    2789392  HIT:          0  MISS:    2789392
cpu0_L2C RFO       ACCESS:         20  HIT:          0  MISS:         20
cpu0_L2C PREFETCH  ACCESS:          0  HIT:          0  MISS:          0
cpu0_L2C WRITEBACK ACCESS:    1014579  HIT:    1014579  MISS:          0
cpu0_L2C TRANSLATION ACCESS:         30  HIT:          0  MISS:         30
cpu0_L2C PREFETCH  REQUESTED:          0  ISSUED:          0  USEFUL:          0  USELESS:          0
cpu0_L2C AVERAGE MISS LATENCY: 146.767 cycles
LLC TOTAL     ACCESS:    3798498  HIT:     246237  MISS:    3552261
LLC LOAD      ACCESS:    2789392  HIT:     135132  MISS:    2654260
LLC RFO       ACCESS:         20  HIT:          8  MISS:         12
LLC PREFETCH  ACCESS:          0  HIT:          0  MISS:          0
LLC WRITEBACK ACCESS:    1009056  HIT:     111090  MISS:     897966
LLC TRANSLATION ACCESS:         30  HIT:          7  MISS:         23
LLC PREFETCH  REQUESTED:          0  ISSUED:          0  USEFUL:          0  USELESS:          0
LLC AVERAGE MISS LATENCY: 98.7555 cycles
Insertion Distribution: 
	LOAD 7532 0 0 0 0 0 92592 2818209 
	RFO 0 0 0 0 0 0 16 0 
	PREF 0 0 0 0 0 0 0 0 
	WRITEBACK 0 0 0 0 0 0 0 1021544 
	 0 0 0 0 0 0 23 13 
Total Prefetch Downgrades: 0

DRAM Statistics
 CHANNEL 0
 RQ ROW_BUFFER_HIT:    1417626  ROW_BUFFER_MISS:    1236626
 DBUS AVG_CONGESTED_CYCLE:    3.72733
 WQ ROW_BUFFER_HIT:     327792  ROW_BUFFER_MISS:     592789  FULL:       7763


CPU 0 Branch Prediction Accuracy: 89.0086% MPKI: 24.5272 Average ROB Occupancy at Mispredict: 3.9152
Branch type MPKI
BRANCH_DIRECT_JUMP: 2e-05
BRANCH_INDIRECT: 0
BRANCH_CONDITIONAL: 24.527
BRANCH_DIRECT_CALL: 8e-05
BRANCH_INDIRECT_CALL: 0
BRANCH_RETURN: 8e-05

