
*** ChampSim Multicore Out-of-Order Simulator ***

Warmup Instructions: 10000000
Simulation Instructions: 100000000
Number of CPUs: 1
Off-chip DRAM Size: 4 GiB Channels: 1 Width: 64-bit Data Rate: 3200 MT/s

VirtualMemory physical capacity: 8588881920 num_ppages: 2096895
VirtualMemory page size: 4096 log2_page_size: 12

CPU 0 runs /datasets/cs240c-wi22-a00-public/data/Assignment2/omnetpp_4B.trace.xz
CPU 0 Bimodal branch predictor
Basic BTB sets: 1024 ways: 8 indirect buffer size: 4096 RAS size: 64
Initialize SRRIP state
Heartbeat CPU 0 instructions: 10000002 cycles: 2526494 heartbeat IPC: 3.95806 cumulative IPC: 3.95806 (Simulation time: 0 hr 0 min 24 sec) 

Warmup complete CPU 0 instructions: 10000002 cycles: 2526494 (Simulation time: 0 hr 0 min 24 sec) 

Heartbeat CPU 0 instructions: 20000000 cycles: 9062277 heartbeat IPC: 1.53004 cumulative IPC: 1.53004 (Simulation time: 0 hr 0 min 59 sec) 
Heartbeat CPU 0 instructions: 30000001 cycles: 15697030 heartbeat IPC: 1.50722 cumulative IPC: 1.51854 (Simulation time: 0 hr 1 min 40 sec) 
Heartbeat CPU 0 instructions: 40000002 cycles: 22382670 heartbeat IPC: 1.49574 cumulative IPC: 1.51086 (Simulation time: 0 hr 2 min 19 sec) 
Heartbeat CPU 0 instructions: 50000000 cycles: 29176249 heartbeat IPC: 1.47198 cumulative IPC: 1.50095 (Simulation time: 0 hr 2 min 59 sec) 
Heartbeat CPU 0 instructions: 60000000 cycles: 35782007 heartbeat IPC: 1.51383 cumulative IPC: 1.50351 (Simulation time: 0 hr 3 min 39 sec) 
Heartbeat CPU 0 instructions: 70000000 cycles: 42370581 heartbeat IPC: 1.51778 cumulative IPC: 1.50587 (Simulation time: 0 hr 4 min 15 sec) 
Heartbeat CPU 0 instructions: 80000000 cycles: 48958056 heartbeat IPC: 1.51803 cumulative IPC: 1.5076 (Simulation time: 0 hr 4 min 53 sec) 
Heartbeat CPU 0 instructions: 90000000 cycles: 55796819 heartbeat IPC: 1.46225 cumulative IPC: 1.50177 (Simulation time: 0 hr 5 min 34 sec) 
Heartbeat CPU 0 instructions: 100000001 cycles: 62100516 heartbeat IPC: 1.58637 cumulative IPC: 1.51073 (Simulation time: 0 hr 6 min 8 sec) 
Heartbeat CPU 0 instructions: 110000002 cycles: 68738757 heartbeat IPC: 1.50642 cumulative IPC: 1.51029 (Simulation time: 0 hr 6 min 49 sec) 
Finished CPU 0 instructions: 100000000 cycles: 66212263 cumulative IPC: 1.51029 (Simulation time: 0 hr 6 min 49 sec) 

ChampSim completed all CPUs

Region of Interest Statistics

CPU 0 cumulative IPC: 1.51029 instructions: 100000000 cycles: 66212263
cpu0_DTLB TOTAL     ACCESS:   11671568  HIT:   10239711  MISS:    1431857
cpu0_DTLB LOAD      ACCESS:    9085203  HIT:    7654911  MISS:    1430292
cpu0_DTLB RFO       ACCESS:    2586365  HIT:    2584800  MISS:       1565
cpu0_DTLB PREFETCH  ACCESS:          0  HIT:          0  MISS:          0
cpu0_DTLB WRITEBACK ACCESS:          0  HIT:          0  MISS:          0
cpu0_DTLB TRANSLATION ACCESS:          0  HIT:          0  MISS:          0
cpu0_DTLB PREFETCH  REQUESTED:          0  ISSUED:          0  USEFUL:          0  USELESS:          0
cpu0_DTLB AVERAGE MISS LATENCY: 17.5653 cycles
cpu0_ITLB TOTAL     ACCESS:    7987499  HIT:    7963332  MISS:      24167
cpu0_ITLB LOAD      ACCESS:    7987499  HIT:    7963332  MISS:      24167
cpu0_ITLB RFO       ACCESS:          0  HIT:          0  MISS:          0
cpu0_ITLB PREFETCH  ACCESS:          0  HIT:          0  MISS:          0
cpu0_ITLB WRITEBACK ACCESS:          0  HIT:          0  MISS:          0
cpu0_ITLB TRANSLATION ACCESS:          0  HIT:          0  MISS:          0
cpu0_ITLB PREFETCH  REQUESTED:          0  ISSUED:          0  USEFUL:          0  USELESS:          0
cpu0_ITLB AVERAGE MISS LATENCY: 10.8443 cycles
cpu0_L1I TOTAL     ACCESS:    1939613  HIT:    1876717  MISS:      62896
cpu0_L1I LOAD      ACCESS:    1939613  HIT:    1876717  MISS:      62896
cpu0_L1I RFO       ACCESS:          0  HIT:          0  MISS:          0
cpu0_L1I PREFETCH  ACCESS:          0  HIT:          0  MISS:          0
cpu0_L1I WRITEBACK ACCESS:          0  HIT:          0  MISS:          0
cpu0_L1I TRANSLATION ACCESS:          0  HIT:          0  MISS:          0
cpu0_L1I PREFETCH  REQUESTED:          0  ISSUED:          0  USEFUL:          0  USELESS:          0
cpu0_L1I AVERAGE MISS LATENCY: 46.6535 cycles
cpu0_STLB TOTAL     ACCESS:    1456024  HIT:      23475  MISS:    1432549
cpu0_STLB LOAD      ACCESS:    1454459  HIT:      22727  MISS:    1431732
cpu0_STLB RFO       ACCESS:       1565  HIT:        748  MISS:        817
cpu0_STLB PREFETCH  ACCESS:          0  HIT:          0  MISS:          0
cpu0_STLB WRITEBACK ACCESS:          0  HIT:          0  MISS:          0
cpu0_STLB TRANSLATION ACCESS:          0  HIT:          0  MISS:          0
cpu0_STLB PREFETCH  REQUESTED:          0  ISSUED:          0  USEFUL:          0  USELESS:          0
cpu0_STLB AVERAGE MISS LATENCY: 8.14929 cycles
cpu0_L1D TOTAL     ACCESS:   12506682  HIT:   10016777  MISS:    2489905
cpu0_L1D LOAD      ACCESS:    7247291  HIT:    4796077  MISS:    2451214
cpu0_L1D RFO       ACCESS:    4653859  HIT:    4616156  MISS:      37703
cpu0_L1D PREFETCH  ACCESS:          0  HIT:          0  MISS:          0
cpu0_L1D WRITEBACK ACCESS:          0  HIT:          0  MISS:          0
cpu0_L1D TRANSLATION ACCESS:     605532  HIT:     604544  MISS:        988
cpu0_L1D PREFETCH  REQUESTED:          0  ISSUED:          0  USEFUL:          0  USELESS:          0
cpu0_L1D AVERAGE MISS LATENCY: 64.3263 cycles
cpu0_L2C TOTAL     ACCESS:    2633756  HIT:     114344  MISS:    2519412
cpu0_L2C LOAD      ACCESS:    2514109  HIT:      32401  MISS:    2481708
cpu0_L2C RFO       ACCESS:      37703  HIT:        795  MISS:      36908
cpu0_L2C PREFETCH  ACCESS:          0  HIT:          0  MISS:          0
cpu0_L2C WRITEBACK ACCESS:      80956  HIT:      80956  MISS:          0
cpu0_L2C TRANSLATION ACCESS:        988  HIT:        192  MISS:        796
cpu0_L2C PREFETCH  REQUESTED:          0  ISSUED:          0  USEFUL:          0  USELESS:          0
cpu0_L2C AVERAGE MISS LATENCY: 52.892 cycles
LLC TOTAL     ACCESS:    2598954  HIT:    2338994  MISS:     259960
LLC LOAD      ACCESS:    2481704  HIT:    2243966  MISS:     237738
LLC RFO       ACCESS:      36908  HIT:      20636  MISS:      16272
LLC PREFETCH  ACCESS:          0  HIT:          0  MISS:          0
LLC WRITEBACK ACCESS:      79546  HIT:      73680  MISS:       5866
LLC TRANSLATION ACCESS:        796  HIT:        712  MISS:         84
LLC PREFETCH  REQUESTED:          0  ISSUED:          0  USEFUL:          0  USELESS:          0
LLC AVERAGE MISS LATENCY: 309.002 cycles
Insertion Distribution: 
	LOAD 100577 0 97364 99420 
	RFO 3290 0 5308 9538 
	PREF 0 0 0 0 
	WRITEBACK 0 0 0 6742 
	 24 0 72 15 
Total Prefetch Downgrades: 0

DRAM Statistics
 CHANNEL 0
 RQ ROW_BUFFER_HIT:      23323  ROW_BUFFER_MISS:     229609
 DBUS AVG_CONGESTED_CYCLE:    3.95198
 WQ ROW_BUFFER_HIT:       5496  ROW_BUFFER_MISS:      41617  FULL:          0


CPU 0 Branch Prediction Accuracy: 97.4293% MPKI: 8.26178 Average ROB Occupancy at Mispredict: 57.0171
Branch type MPKI
BRANCH_DIRECT_JUMP: 0.00037
BRANCH_INDIRECT: 0.12485
BRANCH_CONDITIONAL: 8.10493
BRANCH_DIRECT_CALL: 0.00326
BRANCH_INDIRECT_CALL: 0.00558
BRANCH_RETURN: 0.02279

