
*** ChampSim Multicore Out-of-Order Simulator ***

Warmup Instructions: 10000000
Simulation Instructions: 100000000
Number of CPUs: 1
Off-chip DRAM Size: 4 GiB Channels: 1 Width: 64-bit Data Rate: 3200 MT/s

VirtualMemory physical capacity: 8588881920 num_ppages: 2096895
VirtualMemory page size: 4096 log2_page_size: 12

CPU 0 runs /datasets/cs240c-wi22-a00-public/data/Assignment2/soplex_205B.trace.xz
CPU 0 Bimodal branch predictor
Basic BTB sets: 1024 ways: 8 indirect buffer size: 4096 RAS size: 64
Initialize SRRIP state
Heartbeat CPU 0 instructions: 10000002 cycles: 2865140 heartbeat IPC: 3.49023 cumulative IPC: 3.49023 (Simulation time: 0 hr 0 min 32 sec) 

Warmup complete CPU 0 instructions: 10000002 cycles: 2865140 (Simulation time: 0 hr 0 min 32 sec) 

Heartbeat CPU 0 instructions: 20000004 cycles: 47109397 heartbeat IPC: 0.226018 cumulative IPC: 0.226018 (Simulation time: 0 hr 3 min 31 sec) 
Heartbeat CPU 0 instructions: 30000004 cycles: 84053164 heartbeat IPC: 0.270682 cumulative IPC: 0.246342 (Simulation time: 0 hr 5 min 9 sec) 
Heartbeat CPU 0 instructions: 40000004 cycles: 114385942 heartbeat IPC: 0.329676 cumulative IPC: 0.269008 (Simulation time: 0 hr 6 min 57 sec) 
Heartbeat CPU 0 instructions: 50000001 cycles: 145973243 heartbeat IPC: 0.316583 cumulative IPC: 0.279509 (Simulation time: 0 hr 8 min 36 sec) 
Heartbeat CPU 0 instructions: 60000000 cycles: 173656792 heartbeat IPC: 0.361225 cumulative IPC: 0.292754 (Simulation time: 0 hr 9 min 54 sec) 
Heartbeat CPU 0 instructions: 70000000 cycles: 203231440 heartbeat IPC: 0.338127 cumulative IPC: 0.299452 (Simulation time: 0 hr 11 min 24 sec) 
Heartbeat CPU 0 instructions: 80000003 cycles: 232250702 heartbeat IPC: 0.344599 cumulative IPC: 0.305163 (Simulation time: 0 hr 12 min 44 sec) 
Heartbeat CPU 0 instructions: 90000000 cycles: 264102273 heartbeat IPC: 0.313956 cumulative IPC: 0.306235 (Simulation time: 0 hr 14 min 18 sec) 
Heartbeat CPU 0 instructions: 100000002 cycles: 291974841 heartbeat IPC: 0.358776 cumulative IPC: 0.311301 (Simulation time: 0 hr 15 min 31 sec) 
Heartbeat CPU 0 instructions: 110000000 cycles: 343253991 heartbeat IPC: 0.195011 cumulative IPC: 0.293782 (Simulation time: 0 hr 17 min 51 sec) 
Finished CPU 0 instructions: 100000003 cycles: 340388852 cumulative IPC: 0.293782 (Simulation time: 0 hr 17 min 51 sec) 

ChampSim completed all CPUs

Region of Interest Statistics

CPU 0 cumulative IPC: 0.293782 instructions: 100000003 cycles: 340388852
cpu0_DTLB TOTAL     ACCESS:   22299650  HIT:   21337232  MISS:     962418
cpu0_DTLB LOAD      ACCESS:   16555290  HIT:   15813141  MISS:     742149
cpu0_DTLB RFO       ACCESS:    5744360  HIT:    5524091  MISS:     220269
cpu0_DTLB PREFETCH  ACCESS:          0  HIT:          0  MISS:          0
cpu0_DTLB WRITEBACK ACCESS:          0  HIT:          0  MISS:          0
cpu0_DTLB TRANSLATION ACCESS:          0  HIT:          0  MISS:          0
cpu0_DTLB PREFETCH  REQUESTED:          0  ISSUED:          0  USEFUL:          0  USELESS:          0
cpu0_DTLB AVERAGE MISS LATENCY: 15.7875 cycles
cpu0_ITLB TOTAL     ACCESS:    7918299  HIT:    7918282  MISS:         17
cpu0_ITLB LOAD      ACCESS:    7918299  HIT:    7918282  MISS:         17
cpu0_ITLB RFO       ACCESS:          0  HIT:          0  MISS:          0
cpu0_ITLB PREFETCH  ACCESS:          0  HIT:          0  MISS:          0
cpu0_ITLB WRITEBACK ACCESS:          0  HIT:          0  MISS:          0
cpu0_ITLB TRANSLATION ACCESS:          0  HIT:          0  MISS:          0
cpu0_ITLB PREFETCH  REQUESTED:          0  ISSUED:          0  USEFUL:          0  USELESS:          0
cpu0_ITLB AVERAGE MISS LATENCY: 253.353 cycles
cpu0_L1I TOTAL     ACCESS:     825004  HIT:     824231  MISS:        773
cpu0_L1I LOAD      ACCESS:     825004  HIT:     824231  MISS:        773
cpu0_L1I RFO       ACCESS:          0  HIT:          0  MISS:          0
cpu0_L1I PREFETCH  ACCESS:          0  HIT:          0  MISS:          0
cpu0_L1I WRITEBACK ACCESS:          0  HIT:          0  MISS:          0
cpu0_L1I TRANSLATION ACCESS:          0  HIT:          0  MISS:          0
cpu0_L1I PREFETCH  REQUESTED:          0  ISSUED:          0  USEFUL:          0  USELESS:          0
cpu0_L1I AVERAGE MISS LATENCY: 342.314 cycles
cpu0_STLB TOTAL     ACCESS:     962435  HIT:     806878  MISS:     155557
cpu0_STLB LOAD      ACCESS:     742166  HIT:     597438  MISS:     144728
cpu0_STLB RFO       ACCESS:     220269  HIT:     209440  MISS:      10829
cpu0_STLB PREFETCH  ACCESS:          0  HIT:          0  MISS:          0
cpu0_STLB WRITEBACK ACCESS:          0  HIT:          0  MISS:          0
cpu0_STLB TRANSLATION ACCESS:          0  HIT:          0  MISS:          0
cpu0_STLB PREFETCH  REQUESTED:          0  ISSUED:          0  USEFUL:          0  USELESS:          0
cpu0_STLB AVERAGE MISS LATENCY: 41.0879 cycles
cpu0_L1D TOTAL     ACCESS:   19203405  HIT:   13412996  MISS:    5790409
cpu0_L1D LOAD      ACCESS:   12662741  HIT:    7828315  MISS:    4834426
cpu0_L1D RFO       ACCESS:    6388991  HIT:    5438641  MISS:     950350
cpu0_L1D PREFETCH  ACCESS:          0  HIT:          0  MISS:          0
cpu0_L1D WRITEBACK ACCESS:          0  HIT:          0  MISS:          0
cpu0_L1D TRANSLATION ACCESS:     151673  HIT:     146040  MISS:       5633
cpu0_L1D PREFETCH  REQUESTED:          0  ISSUED:          0  USEFUL:          0  USELESS:          0
cpu0_L1D AVERAGE MISS LATENCY: 238.547 cycles
cpu0_L2C TOTAL     ACCESS:    8360595  HIT:    3854935  MISS:    4505660
cpu0_L2C LOAD      ACCESS:    4834815  HIT:    1131285  MISS:    3703530
cpu0_L2C RFO       ACCESS:     950276  HIT:     149040  MISS:     801236
cpu0_L2C PREFETCH  ACCESS:          0  HIT:          0  MISS:          0
cpu0_L2C WRITEBACK ACCESS:    2569871  HIT:    2569798  MISS:         73
cpu0_L2C TRANSLATION ACCESS:       5633  HIT:       4812  MISS:        821
cpu0_L2C PREFETCH  REQUESTED:          0  ISSUED:          0  USEFUL:          0  USELESS:          0
cpu0_L2C AVERAGE MISS LATENCY: 292.273 cycles
LLC TOTAL     ACCESS:    6405643  HIT:    2801906  MISS:    3603737
LLC LOAD      ACCESS:    3703502  HIT:    1313782  MISS:    2389720
LLC RFO       ACCESS:     801226  HIT:     278654  MISS:     522572
LLC PREFETCH  ACCESS:          0  HIT:          0  MISS:          0
LLC WRITEBACK ACCESS:    1900094  HIT:    1208888  MISS:     691206
LLC TRANSLATION ACCESS:        821  HIT:        582  MISS:        239
LLC PREFETCH  REQUESTED:          0  ISSUED:          0  USEFUL:          0  USELESS:          0
LLC AVERAGE MISS LATENCY: 338.753 cycles
Insertion Distribution: 
	LOAD 51109 0 687368 1952579 
	RFO 20206 0 229383 313456 
	PREF 0 0 0 0 
	WRITEBACK 0 0 0 750850 
	 0 0 136 146 
Total Prefetch Downgrades: 0

DRAM Statistics
 CHANNEL 0
 RQ ROW_BUFFER_HIT:     386532  ROW_BUFFER_MISS:    2524139
 DBUS AVG_CONGESTED_CYCLE:    3.95931
 WQ ROW_BUFFER_HIT:      54380  ROW_BUFFER_MISS:    1060952  FULL:     574084


CPU 0 Branch Prediction Accuracy: 93.3985% MPKI: 13.5305 Average ROB Occupancy at Mispredict: 49.1949
Branch type MPKI
BRANCH_DIRECT_JUMP: 0.00081
BRANCH_INDIRECT: 0.00022
BRANCH_CONDITIONAL: 13.5274
BRANCH_DIRECT_CALL: 0.00058
BRANCH_INDIRECT_CALL: 0.00056
BRANCH_RETURN: 0.00094

