
*** ChampSim Multicore Out-of-Order Simulator ***

Warmup Instructions: 10000000
Simulation Instructions: 100000000
Number of CPUs: 1
Off-chip DRAM Size: 4 GiB Channels: 1 Width: 64-bit Data Rate: 3200 MT/s

VirtualMemory physical capacity: 8588881920 num_ppages: 2096895
VirtualMemory page size: 4096 log2_page_size: 12

CPU 0 runs /datasets/cs240c-wi22-a00-public/data/Assignment2/bzip2_259B.trace.xz
CPU 0 Bimodal branch predictor
Basic BTB sets: 1024 ways: 8 indirect buffer size: 4096 RAS size: 64
Initialize SRRIP state
Heartbeat CPU 0 instructions: 10000002 cycles: 2535454 heartbeat IPC: 3.94407 cumulative IPC: 3.94407 (Simulation time: 0 hr 0 min 28 sec) 

Warmup complete CPU 0 instructions: 10000002 cycles: 2535454 (Simulation time: 0 hr 0 min 28 sec) 

Heartbeat CPU 0 instructions: 20000003 cycles: 9115767 heartbeat IPC: 1.51968 cumulative IPC: 1.51968 (Simulation time: 0 hr 1 min 33 sec) 
Heartbeat CPU 0 instructions: 30000002 cycles: 14567354 heartbeat IPC: 1.83433 cumulative IPC: 1.66225 (Simulation time: 0 hr 2 min 26 sec) 
Heartbeat CPU 0 instructions: 40000003 cycles: 21238088 heartbeat IPC: 1.49909 cumulative IPC: 1.60405 (Simulation time: 0 hr 3 min 10 sec) 
Heartbeat CPU 0 instructions: 50000003 cycles: 29438121 heartbeat IPC: 1.21951 cumulative IPC: 1.48684 (Simulation time: 0 hr 3 min 40 sec) 
Heartbeat CPU 0 instructions: 60000001 cycles: 37292367 heartbeat IPC: 1.2732 cumulative IPC: 1.43856 (Simulation time: 0 hr 4 min 10 sec) 
Heartbeat CPU 0 instructions: 70000004 cycles: 42839488 heartbeat IPC: 1.80274 cumulative IPC: 1.48868 (Simulation time: 0 hr 5 min 3 sec) 
Heartbeat CPU 0 instructions: 80000002 cycles: 49304069 heartbeat IPC: 1.54689 cumulative IPC: 1.49673 (Simulation time: 0 hr 6 min 1 sec) 
Heartbeat CPU 0 instructions: 90000001 cycles: 55611853 heartbeat IPC: 1.58534 cumulative IPC: 1.50726 (Simulation time: 0 hr 6 min 49 sec) 
Heartbeat CPU 0 instructions: 100000000 cycles: 64014508 heartbeat IPC: 1.1901 cumulative IPC: 1.46391 (Simulation time: 0 hr 7 min 20 sec) 
Heartbeat CPU 0 instructions: 110000000 cycles: 71989840 heartbeat IPC: 1.25387 cumulative IPC: 1.43979 (Simulation time: 0 hr 7 min 50 sec) 
Finished CPU 0 instructions: 100000003 cycles: 69454391 cumulative IPC: 1.43979 (Simulation time: 0 hr 7 min 50 sec) 

ChampSim completed all CPUs

Region of Interest Statistics

CPU 0 cumulative IPC: 1.43979 instructions: 100000003 cycles: 69454391
cpu0_DTLB TOTAL     ACCESS:   18628030  HIT:   17966850  MISS:     661180
cpu0_DTLB LOAD      ACCESS:    9570346  HIT:    8913097  MISS:     657249
cpu0_DTLB RFO       ACCESS:    9057684  HIT:    9053753  MISS:       3931
cpu0_DTLB PREFETCH  ACCESS:          0  HIT:          0  MISS:          0
cpu0_DTLB WRITEBACK ACCESS:          0  HIT:          0  MISS:          0
cpu0_DTLB TRANSLATION ACCESS:          0  HIT:          0  MISS:          0
cpu0_DTLB PREFETCH  REQUESTED:          0  ISSUED:          0  USEFUL:          0  USELESS:          0
cpu0_DTLB AVERAGE MISS LATENCY: 9.26318 cycles
cpu0_ITLB TOTAL     ACCESS:    6779098  HIT:    6779095  MISS:          3
cpu0_ITLB LOAD      ACCESS:    6779098  HIT:    6779095  MISS:          3
cpu0_ITLB RFO       ACCESS:          0  HIT:          0  MISS:          0
cpu0_ITLB PREFETCH  ACCESS:          0  HIT:          0  MISS:          0
cpu0_ITLB WRITEBACK ACCESS:          0  HIT:          0  MISS:          0
cpu0_ITLB TRANSLATION ACCESS:          0  HIT:          0  MISS:          0
cpu0_ITLB PREFETCH  REQUESTED:          0  ISSUED:          0  USEFUL:          0  USELESS:          0
cpu0_ITLB AVERAGE MISS LATENCY: 358.333 cycles
cpu0_L1I TOTAL     ACCESS:      58615  HIT:      58476  MISS:        139
cpu0_L1I LOAD      ACCESS:      58615  HIT:      58476  MISS:        139
cpu0_L1I RFO       ACCESS:          0  HIT:          0  MISS:          0
cpu0_L1I PREFETCH  ACCESS:          0  HIT:          0  MISS:          0
cpu0_L1I WRITEBACK ACCESS:          0  HIT:          0  MISS:          0
cpu0_L1I TRANSLATION ACCESS:          0  HIT:          0  MISS:          0
cpu0_L1I PREFETCH  REQUESTED:          0  ISSUED:          0  USEFUL:          0  USELESS:          0
cpu0_L1I AVERAGE MISS LATENCY: 216.029 cycles
cpu0_STLB TOTAL     ACCESS:     661183  HIT:     660363  MISS:        820
cpu0_STLB LOAD      ACCESS:     657252  HIT:     656979  MISS:        273
cpu0_STLB RFO       ACCESS:       3931  HIT:       3384  MISS:        547
cpu0_STLB PREFETCH  ACCESS:          0  HIT:          0  MISS:          0
cpu0_STLB WRITEBACK ACCESS:          0  HIT:          0  MISS:          0
cpu0_STLB TRANSLATION ACCESS:          0  HIT:          0  MISS:          0
cpu0_STLB PREFETCH  REQUESTED:          0  ISSUED:          0  USEFUL:          0  USELESS:          0
cpu0_STLB AVERAGE MISS LATENCY: 213.416 cycles
cpu0_L1D TOTAL     ACCESS:   20325728  HIT:   19320165  MISS:    1005563
cpu0_L1D LOAD      ACCESS:   10370581  HIT:    9484211  MISS:     886370
cpu0_L1D RFO       ACCESS:    9954329  HIT:    9835455  MISS:     118874
cpu0_L1D PREFETCH  ACCESS:          0  HIT:          0  MISS:          0
cpu0_L1D WRITEBACK ACCESS:          0  HIT:          0  MISS:          0
cpu0_L1D TRANSLATION ACCESS:        818  HIT:        499  MISS:        319
cpu0_L1D PREFETCH  REQUESTED:          0  ISSUED:          0  USEFUL:          0  USELESS:          0
cpu0_L1D AVERAGE MISS LATENCY: 79.1953 cycles
cpu0_L2C TOTAL     ACCESS:    1222700  HIT:     525081  MISS:     697619
cpu0_L2C LOAD      ACCESS:     886508  HIT:     288919  MISS:     597589
cpu0_L2C RFO       ACCESS:     118874  HIT:      18898  MISS:      99976
cpu0_L2C PREFETCH  ACCESS:          0  HIT:          0  MISS:          0
cpu0_L2C WRITEBACK ACCESS:     216999  HIT:     216963  MISS:         36
cpu0_L2C TRANSLATION ACCESS:        319  HIT:        301  MISS:         18
cpu0_L2C PREFETCH  REQUESTED:          0  ISSUED:          0  USEFUL:          0  USELESS:          0
cpu0_L2C AVERAGE MISS LATENCY: 98.3339 cycles
LLC TOTAL     ACCESS:     886580  HIT:     590524  MISS:     296056
LLC LOAD      ACCESS:     597588  HIT:     406456  MISS:     191132
LLC RFO       ACCESS:      99976  HIT:      46068  MISS:      53908
LLC PREFETCH  ACCESS:          0  HIT:          0  MISS:          0
LLC WRITEBACK ACCESS:     188998  HIT:     137999  MISS:      50999
LLC TRANSLATION ACCESS:         18  HIT:          1  MISS:         17
LLC PREFETCH  REQUESTED:          0  ISSUED:          0  USEFUL:          0  USELESS:          0
LLC AVERAGE MISS LATENCY: 182.227 cycles
Insertion Distribution: 
	LOAD 2147 0 62543 127024 
	RFO 55 0 27094 42717 
	PREF 0 0 0 0 
	WRITEBACK 0 0 0 50999 
	 0 0 16 12 
Total Prefetch Downgrades: 0

DRAM Statistics
 CHANNEL 0
 RQ ROW_BUFFER_HIT:      33379  ROW_BUFFER_MISS:     211544
 DBUS AVG_CONGESTED_CYCLE:    3.93783
 WQ ROW_BUFFER_HIT:      16392  ROW_BUFFER_MISS:      85850  FULL:       1687


CPU 0 Branch Prediction Accuracy: 93.3658% MPKI: 11.2167 Average ROB Occupancy at Mispredict: 31.7508
Branch type MPKI
BRANCH_DIRECT_JUMP: 0.0006
BRANCH_INDIRECT: 0.01713
BRANCH_CONDITIONAL: 11.1989
BRANCH_DIRECT_CALL: 5e-05
BRANCH_INDIRECT_CALL: 0
BRANCH_RETURN: 6e-05

